@<TRIPOS>MOLECULE
palbociclib.pdb
63 67 1 0 0
SMALL
AMBER ff14SB


@<TRIPOS>ATOM
      1 O01        32.3610   63.9250   36.9870 O.2       1 LQQ   -0.2943
      2 C02        31.9100   63.2540   36.0860 C.2       1 LQQ    0.1649
      3 C01        30.5810   63.5460   35.4560 C.3       1 LQQ   -0.0007
      4 C03        32.6970   62.0740   35.5960 C.2       1 LQQ    0.0841
      5 C04        33.6720   62.2030   34.6020 C.2       1 LQQ   -0.0226
      6 C05        34.0690   63.5290   34.0130 C.3       1 LQQ   -0.0381
      7 C06        34.4820   61.0140   34.2650 C.ar      1 LQQ    0.0376
      8 C07        35.4420   61.0280   33.1620 C.ar      1 LQQ    0.0417
      9 N01        36.0870   59.9040   32.8390 N.ar      1 LQQ   -0.2226
     10 C08        35.7480   58.7130   33.3750 C.ar      1 LQQ    0.2209
     11 N02        34.7560   58.6300   34.3190 N.ar      1 LQQ   -0.1985
     12 C09        34.0380   59.7090   34.7380 C.ar      1 LQQ    0.1399
     13 N03        33.0810   59.6370   35.7000 N.am      1 LQQ   -0.2480
     14 C10        32.7260   58.3170   36.2520 C.3       1 LQQ    0.0323
     15 C11        32.6550   58.2410   37.7720 C.3       1 LQQ   -0.0340
     16 C12        31.4110   57.4150   38.1180 C.3       1 LQQ   -0.0515
     17 C13        30.6420   57.1150   36.8190 C.3       1 LQQ   -0.0515
     18 C14        31.3470   57.9100   35.7210 C.3       1 LQQ   -0.0340
     19 C15        32.3840   60.8180   36.1220 C.2       1 LQQ    0.2551
     20 O02        31.4690   60.7650   36.9870 O.2       1 LQQ   -0.2711
     21 N04        36.4640   57.6490   32.9100 N.pl3     1 LQQ   -0.2681
     22 C16        36.2990   56.3340   33.1930 C.ar      1 LQQ    0.1239
     23 N05        36.9020   55.4250   32.3910 N.ar      1 LQQ   -0.2393
     24 C17        36.7820   54.1130   32.6210 C.ar      1 LQQ    0.0503
     25 C18        36.0310   53.6470   33.7000 C.ar      1 LQQ    0.0477
     26 C19        35.4070   54.5670   34.5360 C.ar      1 LQQ   -0.0359
     27 C20        35.5440   55.9180   34.2840 C.ar      1 LQQ   -0.0196
     28 N06        35.8990   52.2620   33.9510 N.3       1 LQQ   -0.3191
     29 C21        35.2720   51.6040   32.7780 C.3       1 LQQ    0.0508
     30 C22        35.1690   50.0960   32.9930 C.3       1 LQQ   -0.0201
     31 N07        34.5070   49.8030   34.2550 N.4       1 LQQ    0.2415
     32 C23        34.8150   50.5610   35.4650 C.3       1 LQQ   -0.0201
     33 C24        35.1410   52.0350   35.2100 C.3       1 LQQ    0.0508
     34 H07        35.6278   61.9395   32.6133 H         1 LQQ    0.0849
     35 H10        33.4586   57.5889   35.9038 H         1 LQQ    0.0511
     36 H112       33.5484   57.7558   38.1652 H         1 LQQ    0.0286
     37 H113       32.5628   59.2435   38.1898 H         1 LQQ    0.0286
     38 H122       31.7114   56.4799   38.5907 H         1 LQQ    0.0267
     39 H123       30.7739   57.9805   38.7980 H         1 LQQ    0.0267
     40 H132       29.6039   57.4343   36.9109 H         1 LQQ    0.0267
     41 H133       30.6867   56.0490   36.5959 H         1 LQQ    0.0267
     42 H142       31.4600   57.2923   34.8300 H         1 LQQ    0.0286
     43 H143       30.7669   58.8010   35.4807 H         1 LQQ    0.0286
     44 H04        37.2149   57.8701   32.2717 H         1 LQQ    0.1574
     45 H17        37.2711   53.4079   31.9652 H         1 LQQ    0.0861
     46 H19        34.8195   54.2273   35.3762 H         1 LQQ    0.0644
     47 H20        35.0696   56.6439   34.9277 H         1 LQQ    0.0660
     48 H212       35.8782   51.7981   31.8932 H         1 LQQ    0.0524
     49 H213       34.2736   52.0145   32.6267 H         1 LQQ    0.0524
     50 H222       34.5954   49.6563   32.1771 H         1 LQQ    0.0830
     51 H223       36.1699   49.6645   33.0028 H         1 LQQ    0.0830
     52 HN02       33.5167   49.9152   34.0914 H         1 LQQ    0.1982
     53 HN03       34.6696   48.8277   34.4610 H         1 LQQ    0.1982
     54 H232       35.6751   50.0986   35.9494 H         1 LQQ    0.0830
     55 H233       33.9611   50.5037   36.1401 H         1 LQQ    0.0830
     56 H242       34.2053   52.5914   35.1551 H         1 LQQ    0.0524
     57 H243       35.7273   52.4151   36.0466 H         1 LQQ    0.0524
     58 H011       30.1433   64.4286   35.9224 H         1 LQQ    0.0314
     59 H012       30.7168   63.7283   34.3900 H         1 LQQ    0.0314
     60 H013       29.9168   62.6933   35.5971 H         1 LQQ    0.0314
     61 H051       33.4559   64.3184   34.4478 H         1 LQQ    0.0280
     62 H052       35.1192   63.7233   34.2309 H         1 LQQ    0.0280
     63 H053       33.9201   63.5062   32.9335 H         1 LQQ    0.0280
@<TRIPOS>BOND
     1    3    2 1
     2    2    1 2
     3    2    4 2
     4    4    5 2
     5    4   19 1
     6    5    6 1
     7    5    7 1
     8    7    8 ar
     9    7   12 ar
    10    8    9 ar
    11   10    9 ar
    12   10   11 ar
    13   10   21 1
    14   12   11 ar
    15   12   13 1
    16   14   13 1
    17   14   15 1
    18   14   18 1
    19   15   16 1
    20   16   17 1
    21   17   18 1
    22   19   13 am
    23   19   20 2
    24   22   21 1
    25   22   23 ar
    26   22   27 ar
    27   24   23 ar
    28   24   25 ar
    29   25   26 ar
    30   25   28 1
    31   26   27 ar
    32   29   28 1
    33   29   30 1
    34   30   31 1
    35   32   31 1
    36   32   33 1
    37   33   28 1
    38   34    8 1
    39   35   14 1
    40   36   15 1
    41   37   15 1
    42   38   16 1
    43   39   16 1
    44   40   17 1
    45   41   17 1
    46   42   18 1
    47   43   18 1
    48   44   21 1
    49   45   24 1
    50   46   26 1
    51   47   27 1
    52   48   29 1
    53   49   29 1
    54   50   30 1
    55   51   30 1
    56   52   31 1
    57   53   31 1
    58   54   32 1
    59   55   32 1
    60   56   33 1
    61   57   33 1
    62   58    3 1
    63   59    3 1
    64   60    3 1
    65   61    6 1
    66   62    6 1
    67   63    6 1
@<TRIPOS>SUBSTRUCTURE
     1 LQQ     1 RESIDUE           4 B     LQQ     0 ROOT
