@<TRIPOS>MOLECULE
palbociclib_1BI7.pdb
63 67 1 0 0
SMALL
AMBER ff14SB


@<TRIPOS>ATOM
      1 O01       132.5550   49.2720   96.6850 O.2       1 LQQ   -0.2943
      2 C02       133.3550   49.8650   97.3750 C.2       1 LQQ    0.1649
      3 C01       133.0960   51.2470   97.8950 C.3       1 LQQ   -0.0007
      4 C03       134.6610   49.2040   97.7050 C.2       1 LQQ    0.0841
      5 C04       134.7980   48.3570   98.8080 C.2       1 LQQ   -0.0226
      6 C05       133.6440   47.9740   99.6940 C.3       1 LQQ   -0.0381
      7 C06       136.0850   47.6540   98.9900 C.ar      1 LQQ    0.0376
      8 C07       136.3540   46.8420  100.1750 C.ar      1 LQQ    0.0417
      9 N01       137.5630   46.2970  100.3370 N.ar      1 LQQ   -0.2226
     10 C08       138.6000   46.6220   99.5370 C.ar      1 LQQ    0.2209
     11 N02       138.4270   47.4900   98.4880 N.ar      1 LQQ   -0.1985
     12 C09       137.2380   48.0970   98.2160 C.ar      1 LQQ    0.1399
     13 N03       137.0520   48.9270   97.1570 N.am      1 LQQ   -0.2480
     14 C10       138.2110   49.2730   96.3130 C.3       1 LQQ    0.0323
     15 C11       137.9860   49.1550   94.8100 C.3       1 LQQ   -0.0340
     16 C12       138.6370   50.3830   94.1660 C.3       1 LQQ   -0.0515
     17 C13       139.1270   51.3230   95.2810 C.3       1 LQQ   -0.0515
     18 C14       138.6130   50.7260   96.5900 C.3       1 LQQ   -0.0340
     19 C15       135.7650   49.5080   96.9040 C.2       1 LQQ    0.2551
     20 O02       135.5830   50.3080   95.9470 O.2       1 LQQ   -0.2711
     21 N04       139.7830   46.0220   99.8570 N.pl3     1 LQQ   -0.2681
     22 C16       141.0020   46.2140   99.2980 C.ar      1 LQQ    0.1239
     23 N05       142.0910   45.7610   99.9640 N.ar      1 LQQ   -0.2393
     24 C17       143.3210   45.9140   99.4620 C.ar      1 LQQ    0.0503
     25 C18       143.5140   46.5440   98.2320 C.ar      1 LQQ    0.0477
     26 C19       142.4060   47.0120   97.5330 C.ar      1 LQQ   -0.0359
     27 C20       141.1430   46.8440   98.0660 C.ar      1 LQQ   -0.0196
     28 N06       144.8100   46.7100   97.6950 N.3       1 LQQ   -0.3191
     29 C21       145.6370   47.5110   98.6310 C.3       1 LQQ    0.0508
     30 C22       147.0630   47.6570   98.1070 C.3       1 LQQ   -0.0201
     31 N07       147.0570   48.1680   96.7450 N.4       1 LQQ    0.2415
     32 C23       146.1020   47.6740   95.7560 C.3       1 LQQ   -0.0201
     33 C24       144.7330   47.3130   96.3380 C.3       1 LQQ    0.0508
     34 H07       135.5820   46.6838  100.9135 H         1 LQQ    0.0849
     35 H10       139.0438   48.6262   96.5889 H         1 LQQ    0.0511
     36 H112      136.9184   49.1384   94.5909 H         1 LQQ    0.0286
     37 H113      138.4560   48.2460   94.4346 H         1 LQQ    0.0286
     38 H122      139.4818   50.0706   93.5521 H         1 LQQ    0.0267
     39 H123      137.9060   50.9014   93.5456 H         1 LQQ    0.0267
     40 H132      138.7223   52.3248   95.1369 H         1 LQQ    0.0267
     41 H133      140.2164   51.3577   95.2885 H         1 LQQ    0.0267
     42 H142      137.7487   51.2898   96.9409 H         1 LQQ    0.0286
     43 H143      139.4013   50.7534   97.3423 H         1 LQQ    0.0286
     44 H04       139.7449   45.3475  100.6078 H         1 LQQ    0.1574
     45 H17       144.1734   45.5463  100.0140 H         1 LQQ    0.0861
     46 H19       142.5326   47.5035   96.5797 H         1 LQQ    0.0644
     47 H20       140.2738   47.1982   97.5317 H         1 LQQ    0.0660
     48 H212      145.6621   47.0135   99.6005 H         1 LQQ    0.0524
     49 H213      145.1935   48.5000   98.7460 H         1 LQQ    0.0524
     50 H222      147.6108   48.3488   98.7468 H         1 LQQ    0.0830
     51 H223      147.5545   46.6843   98.1245 H         1 LQQ    0.0830
     52 HN02      146.9081   49.1646   96.8138 H         1 LQQ    0.1982
     53 HN03      147.9827   48.0272   96.3664 H         1 LQQ    0.1982
     54 H232      145.9601   48.4471   95.0008 H         1 LQQ    0.0830
     55 H233      146.5218   46.7899   95.2762 H         1 LQQ    0.0830
     56 H242      144.2505   46.5998   95.6697 H         1 LQQ    0.0524
     57 H243      144.1235   48.2153   96.3884 H         1 LQQ    0.0524
     58 H051      132.7427   48.4883   99.3603 H         1 LQQ    0.0280
     59 H052      133.8654   48.2597  100.7223 H         1 LQQ    0.0280
     60 H053      133.4879   46.8965   99.6419 H         1 LQQ    0.0280
     61 H011      132.1108   51.5799   97.5685 H         1 LQQ    0.0314
     62 H012      133.8553   51.9279   97.5103 H         1 LQQ    0.0314
     63 H013      133.1341   51.2384   98.9843 H         1 LQQ    0.0314
@<TRIPOS>BOND
     1    3    2 1
     2    2    1 2
     3    2    4 2
     4    4    5 2
     5    4   19 1
     6    5    6 1
     7    5    7 1
     8    7    8 ar
     9    7   12 ar
    10    8    9 ar
    11   10   21 1
    12   10    9 ar
    13   10   11 ar
    14   12   11 ar
    15   12   13 1
    16   14   13 1
    17   14   15 1
    18   14   18 1
    19   15   16 1
    20   16   17 1
    21   17   18 1
    22   19   20 2
    23   19   13 am
    24   22   27 ar
    25   22   21 1
    26   22   23 ar
    27   24   25 ar
    28   24   23 ar
    29   25   28 1
    30   25   26 ar
    31   26   27 ar
    32   29   28 1
    33   29   30 1
    34   30   31 1
    35   32   31 1
    36   32   33 1
    37   33   28 1
    38   34    8 1
    39   35   14 1
    40   36   15 1
    41   37   15 1
    42   38   16 1
    43   39   16 1
    44   40   17 1
    45   41   17 1
    46   42   18 1
    47   43   18 1
    48   44   21 1
    49   45   24 1
    50   46   26 1
    51   47   27 1
    52   48   29 1
    53   49   29 1
    54   50   30 1
    55   51   30 1
    56   52   31 1
    57   53   31 1
    58   54   32 1
    59   55   32 1
    60   56   33 1
    61   57   33 1
    62   58    6 1
    63   59    6 1
    64   60    6 1
    65   61    3 1
    66   62    3 1
    67   63    3 1
@<TRIPOS>SUBSTRUCTURE
     1 LQQ     1 RESIDUE           4 B     LQQ     0 ROOT
