@<TRIPOS>MOLECULE
AMP-PNP_1BI7.pdb
44 46 1 0 0
SMALL
AMBER ff14SB


@<TRIPOS>ATOM
      1 PG        131.5220   49.9220   97.0780 P.3       1 ANP   -0.0025
      2 O1G       132.0610   50.6200   95.9200 O.co2     1 ANP   -0.6427
      3 O2G       131.5690   50.9110   98.3200 O.co2     1 ANP   -0.6427
      4 O3G       132.4290   48.6530   97.3570 O.co2     1 ANP   -0.6427
      5 PB        129.0950   49.2910   95.4650 P.3       1 ANP    0.2045
      6 O1B       129.7820   48.2210   94.5200 O.co2     1 ANP   -0.5189
      7 O2B       128.9840   50.5490   94.7440 O.co2     1 ANP   -0.5189
      8 N3B       129.9740   49.4270   96.8440 N.pl3     1 ANP   -0.2336
      9 PA        126.8430   47.4600   95.3180 P.3       1 ANP    0.2680
     10 O1A       127.8060   46.2810   95.0920 O.co2     1 ANP   -0.5098
     11 O2A       125.8160   47.0910   96.3270 O.co2     1 ANP   -0.5098
     12 O3A       127.6830   48.7050   95.8500 O.3       1 ANP   -0.2659
     13 O5'       126.2300   47.9150   93.9040 O.3       1 ANP   -0.3185
     14 C5'       126.9230   47.9020   92.6350 C.3       1 ANP    0.0838
     15 C4'       125.9050   47.9830   91.5230 C.3       1 ANP    0.1124
     16 O4'       124.9990   49.0890   91.7500 O.3       1 ANP   -0.3484
     17 C3'       126.4720   48.1580   90.1120 C.3       1 ANP    0.1126
     18 O3'       125.8340   47.2940   89.1780 O.3       1 ANP   -0.3874
     19 C2'       126.2490   49.6480   89.8290 C.3       1 ANP    0.1257
     20 O2'       126.0840   49.9300   88.4450 O.3       1 ANP   -0.3858
     21 C1'       124.9720   49.9430   90.6240 C.3       1 ANP    0.1588
     22 N9        124.8680   51.3260   91.0930 N.ar      1 ANP   -0.2445
     23 C8        123.7640   52.1340   91.0070 C.ar      1 ANP    0.0912
     24 N7        123.8890   53.2820   91.6300 N.ar      1 ANP   -0.2337
     25 C5        125.1680   53.2330   92.1560 C.ar      1 ANP    0.1451
     26 C6        125.9100   54.1430   92.9330 C.ar      1 ANP    0.1462
     27 N6        125.4500   55.3430   93.3170 N.pl3     1 ANP   -0.3413
     28 N1        127.1690   53.7900   93.2860 N.ar      1 ANP   -0.2195
     29 C2        127.6540   52.6190   92.8530 C.ar      1 ANP    0.1195
     30 N3        127.0510   51.6840   92.1130 N.ar      1 ANP   -0.2186
     31 C4        125.7970   52.0420   91.8090 C.ar      1 ANP    0.1586
     32 H3B       129.4830   49.1640   97.6860 H         1 ANP    0.1362
     33 H5'       127.4960   46.9800   92.5400 H         1 ANP    0.0601
     34 H5''      127.5960   48.7570   92.5770 H         1 ANP    0.0601
     35 H4'       125.3200   47.0630   91.5360 H         1 ANP    0.0658
     36 H3'       127.5420   47.9490   90.1250 H         1 ANP    0.0659
     37 H2'       127.0790   50.2300   90.2300 H         1 ANP    0.0675
     38 H1'       124.1030   49.7040   90.0110 H         1 ANP    0.0854
     39 H8        122.8680   51.8490   90.4740 H         1 ANP    0.1018
     40 H2        128.6710   52.4010   93.1430 H         1 ANP    0.1064
     41 H61       124.5180   55.6330   93.0570 H         1 ANP    0.1442
     42 H62       126.0340   55.9570   93.8660 H         1 ANP    0.1442
     43 HO2'      125.8030   50.8420   88.3360 H         1 ANP    0.2108
     44 HO3'      124.8860   47.4430   89.1980 H         1 ANP    0.2107
@<TRIPOS>BOND
     1   21   38 1
     2   21   19 1
     3   21   22 1
     4   21   16 1
     5   29   40 1
     6   29   30 ar
     7   29   28 ar
     8   19   37 1
     9   19   17 1
    10   19   20 1
    11   17   36 1
    12   17   18 1
    13   17   15 1
    14   31   30 ar
    15   31   22 ar
    16   31   25 ar
    17   15   35 1
    18   15   14 1
    19   15   16 1
    20   25   24 ar
    21   25   26 ar
    22   14   33 1
    23   14   34 1
    24   14   13 1
    25   26   27 1
    26   26   28 ar
    27   23   39 1
    28   23   22 ar
    29   23   24 ar
    30   32    8 1
    31   41   27 1
    32   42   27 1
    33   43   20 1
    34   44   18 1
    35    8    5 1
    36    8    1 1
    37   10    9 1
    38    6    5 1
    39    2    1 1
    40   11    9 1
    41    7    5 1
    42    3    1 1
    43   12    5 1
    44   12    9 1
    45    4    1 1
    46   13    9 1
@<TRIPOS>SUBSTRUCTURE
     1 ANP    15 RESIDUE           4 A     ANP     0 ROOT
