
##########                                Name:smiles:C[C@@H](C1=CC=...
##########                DOCK_Rotatable_Bonds:                  10
##########                    Molecular_Weight:             486.635
##########                       Formal_Charge:         0.000400301
##########                          Grid_Score:          -46.299927
##########                     Grid_vdw_energy:          -46.623035
##########                      Grid_es_energy:            0.323109
##########           Internal_energy_repulsive:           39.043400

@<TRIPOS>MOLECULE
smiles:C[C@@H](C1=CC=...
 68 70 1 0 0
PROTEIN
AMBER ff14SB


@<TRIPOS>ATOM
      1 C1         22.8423  -21.9542  -12.0557 C.3     1  UNK        -0.0424
      2 C2         22.7653  -23.2553  -12.8571 C.3     1  UNK         0.0448
      3 H1         23.4296  -23.9960  -12.4120 H       1  UNK         0.0552
      4 C3         21.3504  -23.7738  -12.8384 C.ar    1  UNK        -0.0280
      5 C4         20.3863  -23.1182  -12.0935 C.ar    1  UNK        -0.0565
      6 C5         19.0893  -23.5881  -12.0719 C.ar    1  UNK        -0.0534
      7 C6         18.7508  -24.7270  -12.8036 C.ar    1  UNK        -0.0098
      8 C7         17.3624  -25.2359  -12.7853 C.ar    1  UNK         0.0416
      9 C8         16.6060  -25.7558  -13.8038 C.ar    1  UNK         0.0524
     10 N1         15.3819  -26.1441  -13.5279 N.ar    1  UNK        -0.2532
     11 C9         14.8839  -26.0431  -12.3162 C.ar    1  UNK         0.0649
     12 S1         16.2060  -25.3518  -11.4275 S.2     1  UNK        -0.0754
     13 C10        17.1625  -25.8778  -15.1989 C.3     1  UNK        -0.0210
     14 C11        19.7278  -25.3834  -13.5531 C.ar    1  UNK        -0.0534
     15 C12        21.0200  -24.9003  -13.5706 C.ar    1  UNK        -0.0565
     16 N2         23.1741  -23.0015  -14.2409 N.am    1  UNK        -0.3071
     17 C13        23.9170  -23.9114  -14.9016 C.2     1  UNK         0.2329
     18 C14        24.3360  -23.6510  -16.3257 C.3     1  UNK         0.1047
     19 H2         24.5327  -22.5882  -16.4657 H       1  UNK         0.0608
     20 C15        23.2244  -24.1109  -17.2922 C.3     1  UNK         0.0022
     21 C16        23.7015  -25.5227  -17.7242 C.3     1  UNK         0.0720
     22 H3         23.4241  -26.2725  -16.9833 H       1  UNK         0.0618
     23 C17        25.2380  -25.3307  -17.7713 C.3     1  UNK         0.0412
     24 N3         25.5430  -24.4287  -16.6417 N.am    1  UNK        -0.2856
     25 C18        26.7288  -24.3372  -16.0077 C.2     1  UNK         0.2360
     26 C19        27.8836  -25.2031  -16.4408 C.3     1  UNK         0.1042
     27 H4         27.5986  -25.7734  -17.3249 H       1  UNK         0.0611
     28 C20        28.2517  -26.1656  -15.3098 C.3     1  UNK        -0.0110
     29 C21        29.1922  -25.4634  -14.3284 C.3     1  UNK        -0.0579
     30 C22        26.9812  -26.6004  -14.5765 C.3     1  UNK        -0.0579
     31 C23        28.9497  -27.3955  -15.8937 C.3     1  UNK        -0.0579
     32 N4         29.0371  -24.3568  -16.7565 N.am    1  UNK        -0.3034
     33 C24        29.7598  -24.5906  -17.8699 C.2     1  UNK         0.2092
     34 C25        30.9452  -23.7189  -18.1956 C.3     1  UNK         0.0127
     35 O3         29.4562  -25.5025  -18.6095 O.2     1  UNK        -0.2781
     36 O4         26.8665  -23.5580  -15.0886 O.2     1  UNK        -0.2753
     37 O5         23.1876  -25.8652  -19.0128 O.3     1  UNK        -0.3914
     38 O6         24.2483  -24.9395  -14.3503 O.2     1  UNK        -0.2756
     39 H5         22.1779  -21.2135  -12.5009 H       1  UNK         0.0253
     40 H6         22.5381  -22.1430  -11.0263 H       1  UNK         0.0253
     41 H7         23.8655  -21.5791  -12.0693 H       1  UNK         0.0253
     42 H8         20.6496  -22.2368  -11.5277 H       1  UNK         0.0627
     43 H9         18.3378  -23.0758  -11.4894 H       1  UNK         0.0630
     44 H10        13.9028  -26.3228  -11.9619 H       1  UNK         0.0920
     45 H11        17.6454  -26.8482  -15.3139 H       1  UNK         0.0296
     46 H12        16.3523  -25.7871  -15.9225 H       1  UNK         0.0296
     47 H13        17.8922  -25.0863  -15.3695 H       1  UNK         0.0296
     48 H14        19.4721  -26.2654  -14.1217 H       1  UNK         0.0630
     49 H15        21.7771  -25.4072  -14.1506 H       1  UNK         0.0627
     50 H16        22.9101  -22.1786  -14.6814 H       1  UNK         0.1500
     51 H17        22.2653  -24.1688  -16.7776 H       1  UNK         0.0318
     52 H18        23.1618  -23.4449  -18.1528 H       1  UNK         0.0318
     53 H19        25.7440  -26.2873  -17.6406 H       1  UNK         0.0497
     54 H20        25.5340  -24.8697  -18.7137 H       1  UNK         0.0497
     55 H21        28.7274  -24.5430  -13.9751 H       1  UNK         0.0237
     56 H22        29.3886  -26.1198  -13.4806 H       1  UNK         0.0237
     57 H23        30.1306  -25.2273  -14.8301 H       1  UNK         0.0237
     58 H24        26.3111  -27.1006  -15.2757 H       1  UNK         0.0237
     59 H25        27.2434  -27.2861  -13.7707 H       1  UNK         0.0237
     60 H26        26.4839  -25.7241  -14.1605 H       1  UNK         0.0237
     61 H27        29.8548  -27.0858  -16.4162 H       1  UNK         0.0237
     62 H28        29.2119  -28.0812  -15.0880 H       1  UNK         0.0237
     63 H29        28.2796  -27.8958  -16.5929 H       1  UNK         0.0237
     64 H30        29.2806  -23.6282  -16.1643 H       1  UNK         0.1502
     65 H31        30.6166  -22.6856  -18.3071 H       1  UNK         0.0328
     66 H32        31.6756  -23.7828  -17.3891 H       1  UNK         0.0328
     67 H67        23.8450  -26.4363  -19.4332 H       1  UNK         0.2105
     68 HC1        31.4006  -24.0578  -19.1261 H       1  UNK         0.0328
@<TRIPOS>BOND
     1     1     2    1
     2     2     3    1
     3     2     4    1
     4     4     5   ar
     5     5     6   ar
     6     6     7   ar
     7     7     8    1
     8     8     9   ar
     9     9    10   ar
    10    10    11   ar
    11    11    12   ar
    12     8    12   ar
    13     9    13    1
    14     7    14   ar
    15    14    15   ar
    16     4    15   ar
    17     2    16    1
    18    16    17   am
    19    17    18    1
    20    18    19    1
    21    18    20    1
    22    20    21    1
    23    21    22    1
    24    21    23    1
    25    23    24    1
    26    18    24    1
    27    24    25   am
    28    25    26    1
    29    26    27    1
    30    26    28    1
    31    28    29    1
    32    28    30    1
    33    28    31    1
    34    26    32    1
    35    32    33   am
    36    33    34    1
    37    33    35    2
    38    25    36    2
    39    21    37    1
    40    17    38    2
    41     1    39    1
    42     1    40    1
    43     1    41    1
    44     5    42    1
    45     6    43    1
    46    11    44    1
    47    13    45    1
    48    13    46    1
    49    13    47    1
    50    14    48    1
    51    15    49    1
    52    16    50    1
    53    20    51    1
    54    20    52    1
    55    23    53    1
    56    23    54    1
    57    29    55    1
    58    29    56    1
    59    29    57    1
    60    30    58    1
    61    30    59    1
    62    30    60    1
    63    31    61    1
    64    31    62    1
    65    31    63    1
    66    32    64    1
    67    34    65    1
    68    34    66    1
    69    37    67    1
    70    68    34    1
@<TRIPOS>SUBSTRUCTURE
     1 UNK         1 TEMP              0 ****  ****    0 ROOT


##########                                Name:smiles:C[C@@H](C1=CC=...
##########                DOCK_Rotatable_Bonds:                  10
##########                    Molecular_Weight:             486.635
##########                       Formal_Charge:         0.000400301
##########                          Grid_Score:          -43.412769
##########                     Grid_vdw_energy:          -43.329117
##########                      Grid_es_energy:           -0.083651
##########           Internal_energy_repulsive:           39.809956

@<TRIPOS>MOLECULE
smiles:C[C@@H](C1=CC=...
 68 70 1 0 0
PROTEIN
AMBER ff14SB


@<TRIPOS>ATOM
      1 C1         22.4324  -22.3019  -11.8575 C.3     1  UNK        -0.0424
      2 C2         22.4655  -23.4801  -12.8331 C.3     1  UNK         0.0448
      3 H1         23.0810  -24.2782  -12.4181 H       1  UNK         0.0552
      4 C3         21.0644  -23.9893  -13.0535 C.ar    1  UNK        -0.0280
      5 C4         20.8354  -25.0020  -13.9679 C.ar    1  UNK        -0.0565
      6 C5         19.5550  -25.4724  -14.1746 C.ar    1  UNK        -0.0534
      7 C6         18.4898  -24.9247  -13.4588 C.ar    1  UNK        -0.0098
      8 C7         17.1148  -25.4244  -13.6750 C.ar    1  UNK         0.0416
      9 C8         16.1119  -25.6510  -12.7680 C.ar    1  UNK         0.0524
     10 N1         14.9632  -26.1024  -13.2174 N.ar    1  UNK        -0.2532
     11 C9         14.7669  -26.3345  -14.4957 C.ar    1  UNK         0.0649
     12 S1         16.2952  -25.8935  -15.1923 S.2     1  UNK        -0.0754
     13 C10        16.3214  -25.3902  -11.2986 C.3     1  UNK        -0.0210
     14 C11        18.7275  -23.9038  -12.5377 C.ar    1  UNK        -0.0534
     15 C12        20.0133  -23.4459  -12.3364 C.ar    1  UNK        -0.0565
     16 N2         23.0320  -23.0405  -14.1107 N.am    1  UNK        -0.3071
     17 C13        23.8608  -23.8532  -14.7954 C.2     1  UNK         0.2329
     18 C14        24.4421  -23.4017  -16.1105 C.3     1  UNK         0.1047
     19 H2         24.7726  -22.3659  -16.0335 H       1  UNK         0.0608
     20 C15        23.3832  -23.5334  -17.2253 C.3     1  UNK         0.0022
     21 C16        23.7338  -24.8964  -17.8785 C.3     1  UNK         0.0720
     22 H3         23.3018  -25.7228  -17.3141 H       1  UNK         0.0618
     23 C17        25.2796  -24.9020  -17.7757 C.3     1  UNK         0.0412
     24 N3         25.5763  -24.2623  -16.4775 N.am    1  UNK        -0.2856
     25 C18        26.6982  -24.4406  -15.7522 C.2     1  UNK         0.2360
     26 C19        27.7819  -25.3597  -16.2543 C.3     1  UNK         0.1042
     27 H4         27.4905  -25.7713  -17.2206 H       1  UNK         0.0611
     28 C20        27.9869  -26.5001  -15.2551 C.3     1  UNK        -0.0110
     29 C21        26.6445  -26.8701  -14.6212 C.3     1  UNK        -0.0579
     30 C22        28.5607  -27.7180  -15.9819 C.3     1  UNK        -0.0579
     31 C23        28.9604  -26.0524  -14.1630 C.3     1  UNK        -0.0579
     32 N4         29.0308  -24.6079  -16.4003 N.am    1  UNK        -0.3034
     33 C24        29.6149  -24.5000  -17.6103 C.2     1  UNK         0.2092
     34 C25        30.9005  -23.7283  -17.7602 C.3     1  UNK         0.0127
     35 O3         29.1057  -25.0240  -18.5783 O.2     1  UNK        -0.2781
     36 O4         26.8356  -23.8615  -14.6955 O.2     1  UNK        -0.2753
     37 O5         23.3103  -24.9347  -19.2428 O.3     1  UNK        -0.3914
     38 O6         24.1389  -24.9478  -14.3534 O.2     1  UNK        -0.2756
     39 H5         21.8168  -21.5038  -12.2726 H       1  UNK         0.0253
     40 H6         22.0109  -22.6289  -10.9071 H       1  UNK         0.0253
     41 H7         23.4457  -21.9336  -11.6981 H       1  UNK         0.0253
     42 H8         21.6607  -25.4251  -14.5212 H       1  UNK         0.0627
     43 H9         19.3775  -26.2625  -14.8892 H       1  UNK         0.0630
     44 H10        13.8791  -26.7023  -14.9885 H       1  UNK         0.0920
     45 H11        16.0416  -24.3622  -11.0685 H       1  UNK         0.0296
     46 H12        15.7035  -26.0740  -10.7165 H       1  UNK         0.0296
     47 H13        17.3707  -25.5460  -11.0480 H       1  UNK         0.0296
     48 H14        17.9072  -23.4757  -11.9804 H       1  UNK         0.0630
     49 H15        20.1987  -22.6560  -11.6236 H       1  UNK         0.0627
     50 H16        22.8105  -22.1646  -14.4637 H       1  UNK         0.1500
     51 H17        22.3788  -23.5556  -16.8025 H       1  UNK         0.0318
     52 H18        23.4809  -22.7231  -17.9477 H       1  UNK         0.0318
     53 H19        25.6570  -25.9244  -17.7902 H       1  UNK         0.0497
     54 H20        25.7160  -24.3240  -18.5904 H       1  UNK         0.0497
     55 H21        25.9262  -27.1097  -15.4052 H       1  UNK         0.0237
     56 H22        26.7757  -27.7358  -13.9718 H       1  UNK         0.0237
     57 H23        26.2753  -26.0287  -14.0348 H       1  UNK         0.0237
     58 H24        29.5171  -27.4543  -16.4336 H       1  UNK         0.0237
     59 H25        28.7068  -28.5305  -15.2701 H       1  UNK         0.0237
     60 H26        27.8671  -28.0369  -16.7600 H       1  UNK         0.0237
     61 H27        28.5517  -25.1847  -13.6452 H       1  UNK         0.0237
     62 H28        29.1065  -26.8648  -13.4512 H       1  UNK         0.0237
     63 H29        29.9168  -25.7888  -14.6147 H       1  UNK         0.0237
     64 H30        29.4374  -24.1879  -15.6264 H       1  UNK         0.1502
     65 H31        30.7423  -22.6951  -17.4510 H       1  UNK         0.0328
     66 H32        31.6707  -24.1806  -17.1353 H       1  UNK         0.0328
     67 H67        23.2269  -25.8676  -19.4834 H       1  UNK         0.2105
     68 HC1        31.2186  -23.7511  -18.8026 H       1  UNK         0.0328
@<TRIPOS>BOND
     1     1     2    1
     2     2     3    1
     3     2     4    1
     4     4     5   ar
     5     5     6   ar
     6     6     7   ar
     7     7     8    1
     8     8     9   ar
     9     9    10   ar
    10    10    11   ar
    11    11    12   ar
    12     8    12   ar
    13     9    13    1
    14     7    14   ar
    15    14    15   ar
    16     4    15   ar
    17     2    16    1
    18    16    17   am
    19    17    18    1
    20    18    19    1
    21    18    20    1
    22    20    21    1
    23    21    22    1
    24    21    23    1
    25    23    24    1
    26    18    24    1
    27    24    25   am
    28    25    26    1
    29    26    27    1
    30    26    28    1
    31    28    29    1
    32    28    30    1
    33    28    31    1
    34    26    32    1
    35    32    33   am
    36    33    34    1
    37    33    35    2
    38    25    36    2
    39    21    37    1
    40    17    38    2
    41     1    39    1
    42     1    40    1
    43     1    41    1
    44     5    42    1
    45     6    43    1
    46    11    44    1
    47    13    45    1
    48    13    46    1
    49    13    47    1
    50    14    48    1
    51    15    49    1
    52    16    50    1
    53    20    51    1
    54    20    52    1
    55    23    53    1
    56    23    54    1
    57    29    55    1
    58    29    56    1
    59    29    57    1
    60    30    58    1
    61    30    59    1
    62    30    60    1
    63    31    61    1
    64    31    62    1
    65    31    63    1
    66    32    64    1
    67    34    65    1
    68    34    66    1
    69    37    67    1
    70    68    34    1
@<TRIPOS>SUBSTRUCTURE
     1 UNK         1 TEMP              0 ****  ****    0 ROOT


##########                                Name:smiles:C[C@@H](C1=CC=...
##########                DOCK_Rotatable_Bonds:                  10
##########                    Molecular_Weight:             486.635
##########                       Formal_Charge:         0.000400301
##########                          Grid_Score:          -43.110165
##########                     Grid_vdw_energy:          -42.376568
##########                      Grid_es_energy:           -0.733596
##########           Internal_energy_repulsive:           29.101469

@<TRIPOS>MOLECULE
smiles:C[C@@H](C1=CC=...
 68 70 1 0 0
PROTEIN
AMBER ff14SB


@<TRIPOS>ATOM
      1 C1          9.8479  -23.8041  -15.4312 C.3     1  UNK        -0.0424
      2 C2          9.8953  -24.2090  -13.9565 C.3     1  UNK         0.0448
      3 H1          9.4120  -25.1777  -13.8300 H       1  UNK         0.0552
      4 C3         11.3308  -24.3014  -13.5069 C.ar    1  UNK        -0.0280
      5 C4         11.9082  -23.2453  -12.8248 C.ar    1  UNK        -0.0565
      6 C5         13.2220  -23.3235  -12.4109 C.ar    1  UNK        -0.0534
      7 C6         13.9684  -24.4711  -12.6812 C.ar    1  UNK        -0.0098
      8 C7         15.3770  -24.5618  -12.2399 C.ar    1  UNK         0.0416
      9 C8         16.0647  -25.6263  -11.7168 C.ar    1  UNK         0.0524
     10 N1         17.3271  -25.4504  -11.3998 N.ar    1  UNK        -0.2532
     11 C9         17.9262  -24.2940  -11.5735 C.ar    1  UNK         0.0649
     12 S1         16.6590  -23.3167  -12.2477 S.2     1  UNK        -0.0754
     13 C10        15.3918  -26.9589  -11.5110 C.3     1  UNK        -0.0210
     14 C11        13.3799  -25.5329  -13.3691 C.ar    1  UNK        -0.0534
     15 C12        12.0637  -25.4443  -13.7731 C.ar    1  UNK        -0.0565
     16 N2          9.1951  -23.2050  -13.1515 N.am    1  UNK        -0.3071
     17 C13         7.9434  -23.4457  -12.7139 C.2     1  UNK         0.2329
     18 C14         7.2237  -22.4136  -11.8844 C.3     1  UNK         0.1047
     19 H2          7.8902  -21.5774  -11.6734 H       1  UNK         0.0608
     20 C15         6.7407  -23.0465  -10.5625 C.3     1  UNK         0.0022
     21 C16         5.2610  -23.4002  -10.8666 C.3     1  UNK         0.0720
     22 H3          5.1872  -24.3502  -11.3960 H       1  UNK         0.0618
     23 C17         4.8410  -22.2216  -11.7801 C.3     1  UNK         0.0412
     24 N3          6.0338  -21.9353  -12.6035 N.am    1  UNK        -0.2856
     25 C18         6.0294  -21.3378  -13.8115 C.2     1  UNK         0.2360
     26 C19         4.7272  -20.9000  -14.4308 C.3     1  UNK         0.1042
     27 H4          3.9161  -21.0551  -13.7193 H       1  UNK         0.0611
     28 C20         4.4615  -21.7215  -15.6940 C.3     1  UNK        -0.0110
     29 C21         4.8151  -23.1869  -15.4330 C.3     1  UNK        -0.0579
     30 C22         2.9828  -21.6128  -16.0713 C.3     1  UNK        -0.0579
     31 C23         5.3212  -21.1859  -16.8407 C.3     1  UNK        -0.0579
     32 N4          4.8057  -19.4793  -14.7797 N.am    1  UNK        -0.3034
     33 C24         3.7577  -18.6670  -14.5376 C.2     1  UNK         0.2092
     34 C25         3.8391  -17.2052  -14.8947 C.3     1  UNK         0.0127
     35 O3          2.7493  -19.1126  -14.0321 O.2     1  UNK        -0.2781
     36 O4          7.0735  -21.1524  -14.4002 O.2     1  UNK        -0.2753
     37 O5          4.4828  -23.4229   -9.6683 O.3     1  UNK        -0.3914
     38 O6          7.3960  -24.4928  -12.9877 O.2     1  UNK        -0.2756
     39 H5         10.3313  -22.8353  -15.5576 H       1  UNK         0.0253
     40 H6         10.3689  -24.5510  -16.0300 H       1  UNK         0.0253
     41 H7          8.8097  -23.7372  -15.7564 H       1  UNK         0.0253
     42 H8         11.3295  -22.3577  -12.6162 H       1  UNK         0.0627
     43 H9         13.6719  -22.4981  -11.8791 H       1  UNK         0.0630
     44 H10        18.9484  -24.0215  -11.3560 H       1  UNK         0.0920
     45 H11        15.5069  -27.5665  -12.4085 H       1  UNK         0.0296
     46 H12        15.8501  -27.4706  -10.6646 H       1  UNK         0.0296
     47 H13        14.3316  -26.8036  -11.3109 H       1  UNK         0.0296
     48 H14        13.9523  -26.4239  -13.5814 H       1  UNK         0.0630
     49 H15        11.6068  -26.2656  -14.3053 H       1  UNK         0.0627
     50 H16         9.6324  -22.3671  -12.9336 H       1  UNK         0.1500
     51 H17         7.3128  -23.9457  -10.3336 H       1  UNK         0.0318
     52 H18         6.8054  -22.3286   -9.7449 H       1  UNK         0.0318
     53 H19         4.0033  -22.5126  -12.4138 H       1  UNK         0.0497
     54 H20         4.5787  -21.3508  -11.1793 H       1  UNK         0.0497
     55 H21         4.2631  -23.5446  -14.5638 H       1  UNK         0.0237
     56 H22         4.5487  -23.7856  -16.3041 H       1  UNK         0.0237
     57 H23         5.8852  -23.2747  -15.2452 H       1  UNK         0.0237
     58 H24         2.7309  -20.5688  -16.2573 H       1  UNK         0.0237
     59 H25         2.7935  -22.1981  -16.9713 H       1  UNK         0.0237
     60 H26         2.3704  -21.9944  -15.2543 H       1  UNK         0.0237
     61 H27         6.3747  -21.2632  -16.5719 H       1  UNK         0.0237
     62 H28         5.1320  -21.7711  -17.7407 H       1  UNK         0.0237
     63 H29         5.0693  -20.1418  -17.0267 H       1  UNK         0.0237
     64 H30         5.6117  -19.1232  -15.1850 H       1  UNK         0.1502
     65 H31         4.6620  -16.7432  -14.3494 H       1  UNK         0.0328
     66 H32         4.0102  -17.1021  -15.9663 H       1  UNK         0.0328
     67 H67         3.5598  -23.5285   -9.9364 H       1  UNK         0.2105
     68 HC1         2.9040  -16.7132  -14.6270 H       1  UNK         0.0328
@<TRIPOS>BOND
     1     1     2    1
     2     2     3    1
     3     2     4    1
     4     4     5   ar
     5     5     6   ar
     6     6     7   ar
     7     7     8    1
     8     8     9   ar
     9     9    10   ar
    10    10    11   ar
    11    11    12   ar
    12     8    12   ar
    13     9    13    1
    14     7    14   ar
    15    14    15   ar
    16     4    15   ar
    17     2    16    1
    18    16    17   am
    19    17    18    1
    20    18    19    1
    21    18    20    1
    22    20    21    1
    23    21    22    1
    24    21    23    1
    25    23    24    1
    26    18    24    1
    27    24    25   am
    28    25    26    1
    29    26    27    1
    30    26    28    1
    31    28    29    1
    32    28    30    1
    33    28    31    1
    34    26    32    1
    35    32    33   am
    36    33    34    1
    37    33    35    2
    38    25    36    2
    39    21    37    1
    40    17    38    2
    41     1    39    1
    42     1    40    1
    43     1    41    1
    44     5    42    1
    45     6    43    1
    46    11    44    1
    47    13    45    1
    48    13    46    1
    49    13    47    1
    50    14    48    1
    51    15    49    1
    52    16    50    1
    53    20    51    1
    54    20    52    1
    55    23    53    1
    56    23    54    1
    57    29    55    1
    58    29    56    1
    59    29    57    1
    60    30    58    1
    61    30    59    1
    62    30    60    1
    63    31    61    1
    64    31    62    1
    65    31    63    1
    66    32    64    1
    67    34    65    1
    68    34    66    1
    69    37    67    1
    70    68    34    1
@<TRIPOS>SUBSTRUCTURE
     1 UNK         1 TEMP              0 ****  ****    0 ROOT


##########                                Name:smiles:C[C@@H](C1=CC=...
##########                DOCK_Rotatable_Bonds:                  10
##########                    Molecular_Weight:             486.635
##########                       Formal_Charge:         0.000400301
##########                          Grid_Score:          -43.049206
##########                     Grid_vdw_energy:          -42.293907
##########                      Grid_es_energy:           -0.755300
##########           Internal_energy_repulsive:           29.324812

@<TRIPOS>MOLECULE
smiles:C[C@@H](C1=CC=...
 68 70 1 0 0
PROTEIN
AMBER ff14SB


@<TRIPOS>ATOM
      1 C1          9.8329  -23.8022  -15.6206 C.3     1  UNK        -0.0424
      2 C2          9.8536  -24.2209  -14.1491 C.3     1  UNK         0.0448
      3 H1          9.3540  -25.1833  -14.0382 H       1  UNK         0.0552
      4 C3         11.2810  -24.3390  -13.6803 C.ar    1  UNK        -0.0280
      5 C4         11.8478  -23.3202  -12.9354 C.ar    1  UNK        -0.0565
      6 C5         13.1542  -23.4219  -12.5036 C.ar    1  UNK        -0.0534
      7 C6         13.9038  -24.5557  -12.8194 C.ar    1  UNK        -0.0098
      8 C7         15.3046  -24.6716  -12.3594 C.ar    1  UNK         0.0416
      9 C8         15.9820  -25.7627  -11.8796 C.ar    1  UNK         0.0524
     10 N1         17.2390  -25.6057  -11.5326 N.ar    1  UNK        -0.2532
     11 C9         17.8422  -24.4430  -11.6367 C.ar    1  UNK         0.0649
     12 S1         16.5878  -23.4302  -12.2817 S.2     1  UNK        -0.0754
     13 C10        15.3042  -27.1028  -11.7537 C.3     1  UNK        -0.0210
     14 C11        13.3261  -25.5799  -13.5707 C.ar    1  UNK        -0.0534
     15 C12        12.0171  -25.4682  -13.9920 C.ar    1  UNK        -0.0565
     16 N2          9.1571  -23.2137  -13.3449 N.am    1  UNK        -0.3071
     17 C13         7.8905  -23.4328  -12.9398 C.2     1  UNK         0.2329
     18 C14         7.1748  -22.3974  -12.1111 C.3     1  UNK         0.1047
     19 H2          7.8357  -21.5512  -11.9237 H       1  UNK         0.0608
     20 C15         6.7232  -23.0174  -10.7721 C.3     1  UNK         0.0022
     21 C16         5.2422  -23.3913  -11.0440 C.3     1  UNK         0.0720
     22 H3          5.1693  -24.3492  -11.5591 H       1  UNK         0.0618
     23 C17         4.7924  -22.2300  -11.9654 C.3     1  UNK         0.0412
     24 N3          5.9666  -21.9420  -12.8144 N.am    1  UNK        -0.2856
     25 C18         5.9334  -21.3611  -14.0301 C.2     1  UNK         0.2360
     26 C19         4.6152  -20.9460  -14.6311 C.3     1  UNK         0.1042
     27 H4          3.8313  -21.0256  -13.8779 H       1  UNK         0.0611
     28 C20         4.2826  -21.8603  -15.8119 C.3     1  UNK        -0.0110
     29 C21         2.7731  -21.8431  -16.0607 C.3     1  UNK        -0.0579
     30 C22         5.0113  -21.3639  -17.0623 C.3     1  UNK        -0.0579
     31 C23         4.7308  -23.2880  -15.4934 C.3     1  UNK        -0.0579
     32 N4          4.7058  -19.5600  -15.0969 N.am    1  UNK        -0.3034
     33 C24         3.7014  -18.6973  -14.8448 C.2     1  UNK         0.2092
     34 C25         3.7954  -17.2711  -15.3224 C.3     1  UNK         0.0127
     35 O3          2.7220  -19.0688  -14.2335 O.2     1  UNK        -0.2781
     36 O4          6.9643  -21.1724  -14.6404 O.2     1  UNK        -0.2753
     37 O5          4.4865  -23.4061   -9.8313 O.3     1  UNK        -0.3914
     38 O6          7.3268  -24.4631  -13.2423 O.2     1  UNK        -0.2756
     39 H5         10.3326  -22.8398  -15.7314 H       1  UNK         0.0253
     40 H6         10.3511  -24.5516  -16.2189 H       1  UNK         0.0253
     41 H7          8.8006  -23.7169  -15.9596 H       1  UNK         0.0253
     42 H8         11.2665  -22.4433  -12.6917 H       1  UNK         0.0627
     43 H9         13.5957  -22.6256  -11.9229 H       1  UNK         0.0630
     44 H10        18.8608  -24.1841  -11.3881 H       1  UNK         0.0920
     45 H11        15.4341  -27.6640  -12.6790 H       1  UNK         0.0296
     46 H12        15.7474  -27.6579  -10.9268 H       1  UNK         0.0296
     47 H13        14.2410  -26.9558  -11.5640 H       1  UNK         0.0296
     48 H14        13.9011  -26.4600  -13.8183 H       1  UNK         0.0630
     49 H15        11.5686  -26.2604  -14.5732 H       1  UNK         0.0627
     50 H16         9.6077  -22.3891  -13.1041 H       1  UNK         0.1500
     51 H17         7.3094  -23.9070  -10.5418 H       1  UNK         0.0318
     52 H18         6.7949  -22.2877   -9.9656 H       1  UNK         0.0318
     53 H19         3.9465  -22.5387  -12.5795 H       1  UNK         0.0497
     54 H20         4.5314  -21.3539  -11.3715 H       1  UNK         0.0497
     55 H21         2.4405  -20.8154  -16.2060 H       1  UNK         0.0237
     56 H22         2.5451  -22.4282  -16.9518 H       1  UNK         0.0237
     57 H23         2.2583  -22.2738  -15.2018 H       1  UNK         0.0237
     58 H24         6.0868  -21.3760  -16.8850 H       1  UNK         0.0237
     59 H25         4.7744  -22.0152  -17.9036 H       1  UNK         0.0237
     60 H26         4.6920  -20.3467  -17.2891 H       1  UNK         0.0237
     61 H27         4.2117  -23.6417  -14.6026 H       1  UNK         0.0237
     62 H28         4.4939  -23.9394  -16.3347 H       1  UNK         0.0237
     63 H29         5.8063  -23.3002  -15.3162 H       1  UNK         0.0237
     64 H30         5.4885  -19.2632  -15.5869 H       1  UNK         0.1502
     65 H31         4.6691  -16.7955  -14.8768 H       1  UNK         0.0328
     66 H32         3.8883  -17.2570  -16.4083 H       1  UNK         0.0328
     67 H67         3.5564  -23.3172  -10.0804 H       1  UNK         0.2105
     68 HC1         2.8967  -16.7292  -15.0275 H       1  UNK         0.0328
@<TRIPOS>BOND
     1     1     2    1
     2     2     3    1
     3     2     4    1
     4     4     5   ar
     5     5     6   ar
     6     6     7   ar
     7     7     8    1
     8     8     9   ar
     9     9    10   ar
    10    10    11   ar
    11    11    12   ar
    12     8    12   ar
    13     9    13    1
    14     7    14   ar
    15    14    15   ar
    16     4    15   ar
    17     2    16    1
    18    16    17   am
    19    17    18    1
    20    18    19    1
    21    18    20    1
    22    20    21    1
    23    21    22    1
    24    21    23    1
    25    23    24    1
    26    18    24    1
    27    24    25   am
    28    25    26    1
    29    26    27    1
    30    26    28    1
    31    28    29    1
    32    28    30    1
    33    28    31    1
    34    26    32    1
    35    32    33   am
    36    33    34    1
    37    33    35    2
    38    25    36    2
    39    21    37    1
    40    17    38    2
    41     1    39    1
    42     1    40    1
    43     1    41    1
    44     5    42    1
    45     6    43    1
    46    11    44    1
    47    13    45    1
    48    13    46    1
    49    13    47    1
    50    14    48    1
    51    15    49    1
    52    16    50    1
    53    20    51    1
    54    20    52    1
    55    23    53    1
    56    23    54    1
    57    29    55    1
    58    29    56    1
    59    29    57    1
    60    30    58    1
    61    30    59    1
    62    30    60    1
    63    31    61    1
    64    31    62    1
    65    31    63    1
    66    32    64    1
    67    34    65    1
    68    34    66    1
    69    37    67    1
    70    68    34    1
@<TRIPOS>SUBSTRUCTURE
     1 UNK         1 TEMP              0 ****  ****    0 ROOT


##########                                Name:smiles:C[C@@H](C1=CC=...
##########                DOCK_Rotatable_Bonds:                  10
##########                    Molecular_Weight:             486.635
##########                       Formal_Charge:         0.000400301
##########                          Grid_Score:          -41.977093
##########                     Grid_vdw_energy:          -40.440434
##########                      Grid_es_energy:           -1.536658
##########           Internal_energy_repulsive:           45.852242

@<TRIPOS>MOLECULE
smiles:C[C@@H](C1=CC=...
 68 70 1 0 0
PROTEIN
AMBER ff14SB


@<TRIPOS>ATOM
      1 C1          9.9346  -24.1819  -16.1308 C.3     1  UNK        -0.0424
      2 C2          9.8245  -24.3742  -14.6169 C.3     1  UNK         0.0448
      3 H1          9.2791  -25.2941  -14.4062 H       1  UNK         0.0552
      4 C3         11.2055  -24.4612  -14.0198 C.ar    1  UNK        -0.0280
      5 C4         11.6720  -23.4398  -13.2116 C.ar    1  UNK        -0.0565
      6 C5         12.9355  -23.5132  -12.6623 C.ar    1  UNK        -0.0534
      7 C6         13.7432  -24.6208  -12.9233 C.ar    1  UNK        -0.0098
      8 C7         15.0983  -24.7062  -12.3374 C.ar    1  UNK         0.0416
      9 C8         15.7597  -25.7864  -11.8123 C.ar    1  UNK         0.0524
     10 N1         16.9743  -25.6010  -11.3483 N.ar    1  UNK        -0.2532
     11 C9         17.5511  -24.4208  -11.3800 C.ar    1  UNK         0.0649
     12 S1         16.3330  -23.4319  -12.1240 S.2     1  UNK        -0.0754
     13 C10        15.1117  -27.1462  -11.7683 C.3     1  UNK        -0.0210
     14 C11        13.2665  -25.6478  -13.7389 C.ar    1  UNK        -0.0534
     15 C12        11.9992  -25.5647  -14.2779 C.ar    1  UNK        -0.0565
     16 N2          9.1098  -23.2376  -14.0309 N.am    1  UNK        -0.3071
     17 C13         7.9531  -23.4378  -13.3688 C.2     1  UNK         0.2329
     18 C14         7.2189  -22.2687  -12.7644 C.3     1  UNK         0.1047
     19 H2          7.5965  -21.3366  -13.1847 H       1  UNK         0.0608
     20 C15         7.4049  -22.2672  -11.2325 C.3     1  UNK         0.0022
     21 C16         6.1122  -22.9588  -10.7247 C.3     1  UNK         0.0720
     22 H3          6.2036  -24.0438  -10.7758 H       1  UNK         0.0618
     23 C17         5.0632  -22.4416  -11.7406 C.3     1  UNK         0.0412
     24 N3          5.7783  -22.3904  -13.0323 N.am    1  UNK        -0.2856
     25 C18         5.2047  -22.4479  -14.2506 C.2     1  UNK         0.2360
     26 C19         6.0599  -22.3845  -15.4898 C.3     1  UNK         0.1042
     27 H4          7.0928  -22.6170  -15.2308 H       1  UNK         0.0611
     28 C20         5.9882  -20.9778  -16.0874 C.3     1  UNK        -0.0110
     29 C21         7.1741  -20.7632  -17.0300 C.3     1  UNK        -0.0579
     30 C22         4.6816  -20.8212  -16.8677 C.3     1  UNK        -0.0579
     31 C23         6.0375  -19.9425  -14.9620 C.3     1  UNK        -0.0579
     32 N4          5.5715  -23.3572  -16.4705 N.am    1  UNK        -0.3034
     33 C24         5.3844  -24.6422  -16.1094 C.2     1  UNK         0.2092
     34 C25         4.8803  -25.6424  -17.1177 C.3     1  UNK         0.0127
     35 O3          5.6217  -24.9935  -14.9731 O.2     1  UNK        -0.2781
     36 O4          4.0003  -22.5508  -14.3496 O.2     1  UNK        -0.2753
     37 O5          5.7926  -22.5364   -9.3975 O.3     1  UNK        -0.3914
     38 O6          7.5031  -24.5587  -13.2594 O.2     1  UNK        -0.2756
     39 H5         10.4801  -23.2620  -16.3414 H       1  UNK         0.0253
     40 H6         10.4664  -25.0276  -16.5668 H       1  UNK         0.0253
     41 H7          8.9358  -24.1190  -16.5626 H       1  UNK         0.0253
     42 H8         11.0459  -22.5832  -13.0104 H       1  UNK         0.0627
     43 H9         13.2988  -22.7149  -12.0321 H       1  UNK         0.0630
     44 H10        18.5348  -24.1384  -11.0347 H       1  UNK         0.0920
     45 H11        15.3422  -27.6883  -12.6854 H       1  UNK         0.0296
     46 H12        15.4926  -27.7027  -10.9118 H       1  UNK         0.0296
     47 H13        14.0318  -27.0313  -11.6757 H       1  UNK         0.0296
     48 H14        13.8867  -26.5077  -13.9446 H       1  UNK         0.0630
     49 H15        11.6288  -26.3590  -14.9091 H       1  UNK         0.0627
     50 H16         9.4691  -22.3409  -14.1194 H       1  UNK         0.1500
     51 H17         8.2864  -22.8429  -10.9504 H       1  UNK         0.0318
     52 H18         7.4712  -21.2475  -10.8530 H       1  UNK         0.0318
     53 H19         4.2208  -23.1308  -11.8002 H       1  UNK         0.0497
     54 H20         4.7206  -21.4460  -11.4586 H       1  UNK         0.0497
     55 H21         7.1861  -21.5503  -17.7839 H       1  UNK         0.0237
     56 H22         7.0790  -19.7935  -17.5187 H       1  UNK         0.0237
     57 H23         8.1022  -20.7928  -16.4590 H       1  UNK         0.0237
     58 H24         3.8367  -20.9741  -16.1962 H       1  UNK         0.0237
     59 H25         4.6305  -19.8190  -17.2935 H       1  UNK         0.0237
     60 H26         4.6465  -21.5588  -17.6695 H       1  UNK         0.0237
     61 H27         6.9684  -20.0541  -14.4060 H       1  UNK         0.0237
     62 H28         5.9864  -18.9404  -15.3877 H       1  UNK         0.0237
     63 H29         5.1926  -20.0954  -14.2905 H       1  UNK         0.0237
     64 H30         5.3829  -23.0764  -17.3795 H       1  UNK         0.1502
     65 H31         3.9037  -25.3272  -17.4852 H       1  UNK         0.0328
     66 H32         5.5801  -25.7022  -17.9512 H       1  UNK         0.0328
     67 H67         6.1552  -21.6462   -9.2925 H       1  UNK         0.2105
     68 HC1         4.7925  -26.6211  -16.6459 H       1  UNK         0.0328
@<TRIPOS>BOND
     1     1     2    1
     2     2     3    1
     3     2     4    1
     4     4     5   ar
     5     5     6   ar
     6     6     7   ar
     7     7     8    1
     8     8     9   ar
     9     9    10   ar
    10    10    11   ar
    11    11    12   ar
    12     8    12   ar
    13     9    13    1
    14     7    14   ar
    15    14    15   ar
    16     4    15   ar
    17     2    16    1
    18    16    17   am
    19    17    18    1
    20    18    19    1
    21    18    20    1
    22    20    21    1
    23    21    22    1
    24    21    23    1
    25    23    24    1
    26    18    24    1
    27    24    25   am
    28    25    26    1
    29    26    27    1
    30    26    28    1
    31    28    29    1
    32    28    30    1
    33    28    31    1
    34    26    32    1
    35    32    33   am
    36    33    34    1
    37    33    35    2
    38    25    36    2
    39    21    37    1
    40    17    38    2
    41     1    39    1
    42     1    40    1
    43     1    41    1
    44     5    42    1
    45     6    43    1
    46    11    44    1
    47    13    45    1
    48    13    46    1
    49    13    47    1
    50    14    48    1
    51    15    49    1
    52    16    50    1
    53    20    51    1
    54    20    52    1
    55    23    53    1
    56    23    54    1
    57    29    55    1
    58    29    56    1
    59    29    57    1
    60    30    58    1
    61    30    59    1
    62    30    60    1
    63    31    61    1
    64    31    62    1
    65    31    63    1
    66    32    64    1
    67    34    65    1
    68    34    66    1
    69    37    67    1
    70    68    34    1
@<TRIPOS>SUBSTRUCTURE
     1 UNK         1 TEMP              0 ****  ****    0 ROOT

