@<TRIPOS>MOLECULE
reference.pdb
32 34 1 0 0
SMALL
AMBER ff14SB


@<TRIPOS>ATOM
      1 N2         45.0210  131.0670   16.1290 N.am      1 LVY   -0.2813
      2 C1         45.6420  130.7280   14.8580 C.3       1 LVY    0.1037
      3 C2         46.9000  131.5800   14.5460 C.3       1 LVY   -0.0169
      4 C3         47.4840  131.1360   13.1910 C.3       1 LVY    0.0270
      5 C4         47.7780  129.6550   13.2350 C.2       1 LVY    0.2182
      6 N1         47.0280  128.8480   14.0340 N.am      1 LVY   -0.2541
      7 C5         46.0150  129.2630   14.8500 C.2       1 LVY    0.2388
      8 O2         45.3570  128.4880   15.5330 O.2       1 LVY   -0.2751
      9 O3         48.6590  129.2100   12.5190 O.2       1 LVY   -0.2773
     10 C8         45.7040  130.8970   17.4080 C.3       1 LVY    0.0430
     11 C7         44.6330  131.3520   18.3890 C.ar      1 LVY    0.0028
     12 C6         43.4680  131.7290   17.7170 C.ar      1 LVY    0.0439
     13 C9         43.7480  131.5310   16.2510 C.2       1 LVY    0.2469
     14 O1         42.9040  131.7680   15.3720 O.2       1 LVY   -0.2717
     15 C13        42.3290  132.1830   18.4010 C.ar      1 LVY   -0.0492
     16 C10        42.4240  132.2820   19.8080 C.ar      1 LVY   -0.0596
     17 C11        43.6160  131.9130   20.4840 C.ar      1 LVY   -0.0410
     18 C12        44.7480  131.4350   19.7850 C.ar      1 LVY    0.0289
     19 N3         45.9090  131.0670   20.3980 N.pl3     1 LVY   -0.3580
     20 H1         44.9117  130.8974   14.0667 H         1 LVY    0.0608
     21 H22        47.6435  131.4340   15.3296 H         1 LVY    0.0296
     22 H23        46.6241  132.6333   14.4967 H         1 LVY    0.0296
     23 H32        46.7631  131.3406   12.3994 H         1 LVY    0.0366
     24 H33        48.4054  131.6842   12.9947 H         1 LVY    0.0366
     25 HN1        47.2382  127.8602   14.0224 H         1 LVY    0.1586
     26 H82        45.9807  129.8562   17.5758 H         1 LVY    0.0522
     27 H83        46.5799  131.5431   17.4663 H         1 LVY    0.0522
     28 H13        41.4220  132.4446   17.8763 H         1 LVY    0.0631
     29 H10        41.5790  132.6429   20.3755 H         1 LVY    0.0624
     30 H11        43.6594  131.9995   21.5597 H         1 LVY    0.0643
     31 HN31       46.6871  130.7332   19.8473 H         1 LVY    0.1427
     32 HN32       45.9910  131.1282   21.4028 H         1 LVY    0.1427
@<TRIPOS>BOND
     1    2    7 1
     2    2    1 1
     3    2    3 1
     4   16   15 ar
     5   16   17 ar
     6   17   18 ar
     7   18   19 1
     8   18   11 ar
     9   15   12 ar
    10    3    4 1
    11    4    5 1
    12    5    9 2
    13    5    6 am
    14    7    8 2
    15    7    6 am
    16   12   13 1
    17   12   11 ar
    18   11   10 1
    19   10    1 1
    20   13   14 2
    21   13    1 am
    22   20    2 1
    23   21    3 1
    24   22    3 1
    25   23    4 1
    26   24    4 1
    27   25    6 1
    28   26   10 1
    29   27   10 1
    30   28   15 1
    31   29   16 1
    32   30   17 1
    33   31   19 1
    34   32   19 1
@<TRIPOS>SUBSTRUCTURE
     1 LVY     1 RESIDUE           4 A     LVY     0 ROOT
