
##########                                Name:         AMP-PNP.pdb
##########                DOCK_Rotatable_Bonds:                  10
##########                    Molecular_Weight:             502.168
##########                       Formal_Charge:             -3.9997
##########                          Grid_Score:          -86.167702
##########                     Grid_vdw_energy:          -75.573257
##########                      Grid_es_energy:          -10.594441
##########           Internal_energy_repulsive:            9.192592

@<TRIPOS>MOLECULE
AMP-PNP.pdb
 44 46 1 0 0
SMALL
AMBER ff14SB


@<TRIPOS>ATOM
      1 PG         31.8570   64.5601   36.3123 P.3     1  ANP        -0.0025
      2 O1G        31.0650   63.7799   37.2511 O.co2   1  ANP        -0.6427
      3 O2G        31.0381   64.6841   34.9563 O.co2   1  ANP        -0.6427
      4 O3G        33.2187   63.7919   36.0566 O.co2   1  ANP        -0.6427
      5 PB         32.0839   66.6843   38.3911 P.3     1  ANP         0.2045
      6 O1B        33.0794   65.8985   39.3407 O.co2   1  ANP        -0.5189
      7 O2B        30.7408   66.5909   38.9396 O.co2   1  ANP        -0.5189
      8 N3B        32.1932   66.0649   36.8753 N.pl3   1  ANP        -0.2336
      9 PA         33.6959   68.9716   39.1760 P.3     1  ANP         0.2680
     10 O1A        34.9111   68.0521   39.3919 O.co2   1  ANP        -0.5098
     11 O2A        34.1047   70.1837   38.4203 O.co2   1  ANP        -0.5098
     12 O3A        32.5991   68.1740   38.3398 O.3     1  ANP        -0.2659
     13 O5'        33.0199   69.2897   40.5976 O.3     1  ANP        -0.3185
     14 C5'        32.9293   68.3799   41.7178 C.3     1  ANP         0.0838
     15 C4'        32.6284   69.1722   42.9673 C.3     1  ANP         0.1124
     16 O4'        31.4903   70.0402   42.7503 O.3     1  ANP        -0.3484
     17 C3'        32.3230   68.3493   44.2207 C.3     1  ANP         0.1126
     18 O3'        33.0099   68.8542   45.3615 O.3     1  ANP        -0.3874
     19 C2'        30.7969   68.4316   44.3312 C.3     1  ANP         0.1257
     20 O2'        30.3309   68.3261   45.6699 O.3     1  ANP        -0.3858
     21 C1'        30.5025   69.8137   43.7363 C.3     1  ANP         0.1588
     22 N9         29.1852   69.9230   43.1058 N.ar    1  ANP        -0.2445
     23 C8         28.2872   70.9462   43.2687 C.ar    1  ANP         0.0912
     24 N7         27.2401   70.8722   42.4821 N.ar    1  ANP        -0.2337
     25 C5         27.4569   69.7137   41.7555 C.ar    1  ANP         0.1451
     26 C6         26.7137   69.0758   40.7427 C.ar    1  ANP         0.1462
     27 N6         25.5384   69.5303   40.2830 N.pl3   1  ANP        -0.3413
     28 N1         27.2083   67.9241   40.2298 N.ar    1  ANP        -0.2195
     29 C2         28.3502   67.4362   40.7290 C.ar    1  ANP         0.1195
     30 N3         29.1342   67.9460   41.6843 N.ar    1  ANP        -0.2186
     31 C4         28.6409   69.1011   42.1479 C.ar    1  ANP         0.1586
     32 H3B        32.5204   66.7151   36.1752 H       1  ANP         0.1362
     33 H5'        33.8755   67.8524   41.8380 H       1  ANP         0.0601
     34 H5''       32.1300   67.6604   41.5403 H       1  ANP         0.0601
     35 H4'        33.4929   69.8006   43.1816 H       1  ANP         0.0658
     36 H3'        32.6169   67.3133   44.0523 H       1  ANP         0.0659
     37 H2'        30.3379   67.6575   43.7164 H       1  ANP         0.0675
     38 H1'        30.5923   70.5690   44.5171 H       1  ANP         0.0854
     39 H8         28.4296   71.7439   43.9826 H       1  ANP         0.1018
     40 H2         28.6841   66.5024   40.3014 H       1  ANP         0.1064
     41 H61        25.1443   70.3812   40.6582 H       1  ANP         0.1442
     42 H62        25.0475   69.0216   39.5617 H       1  ANP         0.1442
     43 HO2'       29.3934   68.5310   45.7000 H       1  ANP         0.2108
     44 HO3'       32.7889   69.7803   45.4848 H       1  ANP         0.2107
@<TRIPOS>BOND
     1    21    16    1
     2    21    19    1
     3    21    22    1
     4    29    28   ar
     5    29    30   ar
     6    19    17    1
     7    19    20    1
     8    17    15    1
     9    17    18    1
    10    31    22   ar
    11    31    25   ar
    12    31    30   ar
    13    15    14    1
    14    15    16    1
    15    25    24   ar
    16    25    26   ar
    17    14    13    1
    18    26    27    1
    19    26    28   ar
    20    23    22   ar
    21    23    24   ar
    22     8     1    1
    23     8     5    1
    24    10     9    1
    25     6     5    1
    26     2     1    1
    27    11     9    1
    28     7     5    1
    29     3     1    1
    30    12     5    1
    31    12     9    1
    32     4     1    1
    33    13     9    1
    34    32     8    1
    35    33    14    1
    36    34    14    1
    37    35    15    1
    38    36    17    1
    39    37    19    1
    40    38    21    1
    41    39    23    1
    42    40    29    1
    43    41    27    1
    44    42    27    1
    45    43    20    1
    46    44    18    1
@<TRIPOS>SUBSTRUCTURE
     1 ANP         1 TEMP              0 ****  ****    0 ROOT

