
##########                                Name:    AMP-PNP_2EUF.pdb
##########                DOCK_Rotatable_Bonds:                  10
##########                    Molecular_Weight:             502.168
##########                       Formal_Charge:             -3.9997
##########                          Grid_Score:          -73.917747
##########                     Grid_vdw_energy:          -73.890907
##########                      Grid_es_energy:           -0.026838
##########           Internal_energy_repulsive:           13.741199

@<TRIPOS>MOLECULE
AMP-PNP_2EUF.pdb
 44 46 1 0 0
SMALL
AMBER ff14SB


@<TRIPOS>ATOM
      1 PG         33.5650   26.2247   61.4653 P.3     1  ANP        -0.0025
      2 O1G        34.4689   25.3176   60.7750 O.co2   1  ANP        -0.6427
      3 O2G        33.7751   26.0400   63.0298 O.co2   1  ANP        -0.6427
      4 O3G        32.0802   25.8412   61.0677 O.co2   1  ANP        -0.6427
      5 PB         33.3966   28.6490   59.7383 P.3     1  ANP         0.2045
      6 O1B        34.6886   28.9483   58.8731 O.co2   1  ANP        -0.5189
      7 O2B        32.7497   29.9095   60.0671 O.co2   1  ANP        -0.5189
      8 N3B        33.8320   27.7952   61.0708 N.pl3   1  ANP        -0.2336
      9 PA         32.7818   26.5772   57.7937 P.3     1  ANP         0.2680
     10 O1A        32.6399   27.1681   56.3793 O.co2   1  ANP        -0.5098
     11 O2A        34.1651   26.0769   57.9990 O.co2   1  ANP        -0.5098
     12 O3A        32.4724   27.7243   58.8552 O.3     1  ANP        -0.2659
     13 O5'        31.6477   25.4608   58.0110 O.3     1  ANP        -0.3185
     14 C5'        30.4725   25.2726   57.1908 C.3     1  ANP         0.0838
     15 C4'        30.5538   23.9196   56.5246 C.3     1  ANP         0.1124
     16 O4'        30.6878   22.8769   57.5199 O.3     1  ANP        -0.3484
     17 C3'        29.3624   23.5371   55.6428 C.3     1  ANP         0.1126
     18 O3'        29.7849   22.9762   54.4043 O.3     1  ANP        -0.3874
     19 C2'        28.5710   22.5658   56.5252 C.3     1  ANP         0.1257
     20 O2'        27.8315   21.6124   55.7745 O.3     1  ANP        -0.3858
     21 C1'        29.6778   21.9018   57.3512 C.3     1  ANP         0.1588
     22 N9         29.2458   21.4496   58.6753 N.ar    1  ANP        -0.2445
     23 C8         28.2396   20.5572   58.9426 C.ar    1  ANP         0.0912
     24 N7         28.1471   20.2131   60.2036 N.ar    1  ANP        -0.2337
     25 C5         29.1564   20.9357   60.8158 C.ar    1  ANP         0.1451
     26 C6         29.5932   21.0095   62.1536 C.ar    1  ANP         0.1462
     27 N6         29.0242   20.3329   63.1615 N.pl3   1  ANP        -0.3413
     28 N1         30.6297   21.8374   62.4314 N.ar    1  ANP        -0.2195
     29 C2         31.1600   22.5597   61.4389 C.ar    1  ANP         0.1195
     30 N3         30.8301   22.5758   60.1426 N.ar    1  ANP        -0.2186
     31 C4         29.8278   21.7234   59.8894 C.ar    1  ANP         0.1586
     32 H3B        34.3484   28.3223   61.7604 H       1  ANP         0.1362
     33 H5'        29.5797   25.3206   57.8142 H       1  ANP         0.0601
     34 H5''       30.4293   26.0523   56.4303 H       1  ANP         0.0601
     35 H4'        31.4488   23.9058   55.9027 H       1  ANP         0.0658
     36 H3'        28.7577   24.4232   55.4497 H       1  ANP         0.0659
     37 H2'        27.9013   23.1219   57.1812 H       1  ANP         0.0675
     38 H1'        30.0830   21.0557   56.7962 H       1  ANP         0.0854
     39 H8         27.5800   20.1713   58.1795 H       1  ANP         0.1018
     40 H2         31.9653   23.2210   61.7228 H       1  ANP         0.1064
     41 H61        28.2430   19.7190   62.9801 H       1  ANP         0.1442
     42 H62        29.3768   20.4371   64.1022 H       1  ANP         0.1442
     43 HO2'       27.2136   22.0679   55.1980 H       1  ANP         0.2108
     44 HO3'       30.2580   23.6397   53.8968 H       1  ANP         0.2107
@<TRIPOS>BOND
     1    21    16    1
     2    21    19    1
     3    21    22    1
     4    29    28   ar
     5    29    30   ar
     6    19    17    1
     7    19    20    1
     8    17    15    1
     9    17    18    1
    10    31    22   ar
    11    31    25   ar
    12    31    30   ar
    13    15    14    1
    14    15    16    1
    15    25    24   ar
    16    25    26   ar
    17    14    13    1
    18    26    27    1
    19    26    28   ar
    20    23    22   ar
    21    23    24   ar
    22     8     1    1
    23     8     5    1
    24    10     9    1
    25     6     5    1
    26     2     1    1
    27    11     9    1
    28     7     5    1
    29     3     1    1
    30    12     5    1
    31    12     9    1
    32     4     1    1
    33    13     9    1
    34    32     8    1
    35    33    14    1
    36    34    14    1
    37    35    15    1
    38    36    17    1
    39    37    19    1
    40    38    21    1
    41    39    23    1
    42    40    29    1
    43    41    27    1
    44    42    27    1
    45    43    20    1
    46    44    18    1
@<TRIPOS>SUBSTRUCTURE
     1 ANP         1 TEMP              0 ****  ****    0 ROOT

