@<TRIPOS>MOLECULE
AMP-PNP_2EUF.pdb
44 46 1 0 0
SMALL
AMBER ff14SB


@<TRIPOS>ATOM
      1 PG         30.8770   21.7570   52.4040 P.3       1 ANP   -0.0025
      2 O1G        30.0250   21.1290   51.4060 O.co2     1 ANP   -0.6427
      3 O2G        32.1620   22.3340   51.6680 O.co2     1 ANP   -0.6427
      4 O3G        31.3040   20.6520   53.4560 O.co2     1 ANP   -0.6427
      5 PB         30.6610   24.4660   53.6300 P.3       1 ANP    0.2045
      6 O1B        29.4180   25.4010   53.9270 O.co2     1 ANP   -0.5189
      7 O2B        31.4800   25.0870   52.6010 O.co2     1 ANP   -0.5189
      8 N3B        30.1190   22.9790   53.1950 N.pl3     1 ANP   -0.2336
      9 PA         32.9840   24.1330   55.3460 P.3       1 ANP    0.2680
     10 O1A        33.7330   23.7170   54.0670 O.co2     1 ANP   -0.5098
     11 O2A        33.5260   25.4180   55.8570 O.co2     1 ANP   -0.5098
     12 O3A        31.4410   24.3140   54.9930 O.3       1 ANP   -0.2659
     13 O5'        33.0530   22.9300   56.4080 O.3       1 ANP   -0.3185
     14 C5'        33.0160   21.5190   56.0970 C.3       1 ANP    0.0838
     15 C4'        32.3900   20.7800   57.2560 C.3       1 ANP    0.1124
     16 O4'        33.1090   21.0640   58.4800 O.3       1 ANP   -0.3484
     17 C3'        30.9160   21.0910   57.5280 C.3       1 ANP    0.1126
     18 O3'        30.1640   19.9050   57.7620 O.3       1 ANP   -0.3874
     19 C2'        30.9740   22.0360   58.7330 C.3       1 ANP    0.1257
     20 O2'        29.8150   21.9610   59.5520 O.3       1 ANP   -0.3858
     21 C1'        32.2230   21.5440   59.4720 C.3       1 ANP    0.1588
     22 N9         32.9100   22.5830   60.2420 N.ar      1 ANP   -0.2445
     23 C8         33.1940   23.8560   59.8190 C.ar      1 ANP    0.0912
     24 N7         33.6890   24.6340   60.7500 N.ar      1 ANP   -0.2337
     25 C5         33.7460   23.8160   61.8650 C.ar      1 ANP    0.1451
     26 C6         34.1710   24.0450   63.1890 C.ar      1 ANP    0.1462
     27 N6         34.6620   25.2150   63.6220 N.pl3     1 ANP   -0.3413
     28 N1         34.1030   23.0080   64.0590 N.ar      1 ANP   -0.2195
     29 C2         33.6710   21.8230   63.6150 C.ar      1 ANP    0.1195
     30 N3         33.2480   21.4880   62.3910 N.ar      1 ANP   -0.2186
     31 C4         33.2920   22.5390   61.5610 C.ar      1 ANP    0.1586
     32 H3B        29.1632   22.7843   53.4568 H         1 ANP    0.1362
     33 H5'        32.4226   21.3581   55.1970 H         1 ANP    0.0601
     34 H5''       34.0303   21.1538   55.9359 H         1 ANP    0.0601
     35 H4'        32.4757   19.7117   57.0575 H         1 ANP    0.0658
     36 H3'        30.4959   21.6216   56.6736 H         1 ANP    0.0659
     37 H2'        31.1231   23.0611   58.3939 H         1 ANP    0.0675
     38 H1'        31.9489   20.7249   60.1369 H         1 ANP    0.0854
     39 H8         33.0243   24.1888   58.8057 H         1 ANP    0.1018
     40 H2         33.6624   21.0270   64.3449 H         1 ANP    0.1064
     41 H61        34.7330   25.9984   62.9885 H         1 ANP    0.1442
     42 H62        34.9609   25.3130   64.5818 H         1 ANP    0.1442
     43 HO2'       29.0536   22.2758   59.0594 H         1 ANP    0.2108
     44 HO3'       29.2469   20.1347   57.9287 H         1 ANP    0.2107
@<TRIPOS>BOND
     1   21   16 1
     2   21   19 1
     3   21   22 1
     4   29   28 ar
     5   29   30 ar
     6   19   17 1
     7   19   20 1
     8   17   15 1
     9   17   18 1
    10   31   22 ar
    11   31   25 ar
    12   31   30 ar
    13   15   14 1
    14   15   16 1
    15   25   24 ar
    16   25   26 ar
    17   14   13 1
    18   26   27 1
    19   26   28 ar
    20   23   22 ar
    21   23   24 ar
    22    8    1 1
    23    8    5 1
    24   10    9 1
    25    6    5 1
    26    2    1 1
    27   11    9 1
    28    7    5 1
    29    3    1 1
    30   12    5 1
    31   12    9 1
    32    4    1 1
    33   13    9 1
    34   32    8 1
    35   33   14 1
    36   34   14 1
    37   35   15 1
    38   36   17 1
    39   37   19 1
    40   38   21 1
    41   39   23 1
    42   40   29 1
    43   41   27 1
    44   42   27 1
    45   43   20 1
    46   44   18 1
@<TRIPOS>SUBSTRUCTURE
     1 ANP    15 RESIDUE           4 A     ANP     0 ROOT
