@<TRIPOS>MOLECULE
Palbo.pdb
63 67 1 0 0
SMALL
AMBER ff14SB


@<TRIPOS>ATOM
      1 O01        35.0220  142.9030   31.4780 O.2       1 LQQ   -0.2943
      2 C02        35.0200  142.0190   30.6190 C.2       1 LQQ    0.1649
      3 C01        33.7230  141.4550   30.1290 C.3       1 LQQ   -0.0007
      4 C03        36.2890  141.4980   30.0860 C.2       1 LQQ    0.0841
      5 C04        37.1070  142.2970   29.3390 C.2       1 LQQ   -0.0226
      6 C05        36.6480  143.6630   28.9230 C.3       1 LQQ   -0.0381
      7 C06        38.4050  141.8150   28.8840 C.ar      1 LQQ    0.0376
      8 C07        39.4230  142.5690   28.2910 C.ar      1 LQQ    0.0417
      9 N01        40.6450  142.1100   28.0100 N.ar      1 LQQ   -0.2226
     10 C08        40.8530  140.8100   28.2690 C.ar      1 LQQ    0.2209
     11 N02        39.9760  139.9600   28.8340 N.ar      1 LQQ   -0.1985
     12 C09        38.7780  140.4810   29.1600 C.ar      1 LQQ    0.1399
     13 N03        37.9230  139.6730   29.9030 N.am      1 LQQ   -0.2480
     14 C10        38.3650  138.3120   30.3110 C.3       1 LQQ    0.0323
     15 C11        38.7520  138.2000   31.7870 C.3       1 LQQ   -0.0340
     16 C12        38.3170  136.8080   32.1650 C.3       1 LQQ   -0.0515
     17 C13        37.0940  136.5590   31.3690 C.3       1 LQQ   -0.0515
     18 C14        37.3530  137.2010   30.0240 C.3       1 LQQ   -0.0340
     19 C15        36.6630  140.1370   30.3990 C.2       1 LQQ    0.2551
     20 O02        35.9470  139.4120   31.0800 O.2       1 LQQ   -0.2711
     21 N04        42.0780  140.3650   27.8590 N.pl3     1 LQQ   -0.2681
     22 C16        42.6260  139.1020   27.8620 C.ar      1 LQQ    0.1239
     23 N05        42.7480  138.6000   26.6240 N.ar      1 LQQ   -0.2393
     24 C17        43.2500  137.3650   26.4930 C.ar      1 LQQ    0.0503
     25 C18        43.6430  136.5740   27.5690 C.ar      1 LQQ    0.0477
     26 C19        43.5270  137.1190   28.8430 C.ar      1 LQQ   -0.0359
     27 C20        43.0190  138.3930   29.0050 C.ar      1 LQQ   -0.0196
     28 N06        44.0610  135.2560   27.3660 N.pl3     1 LQQ   -0.3191
     29 C21        45.0970  134.7100   28.2480 C.3       1 LQQ    0.0508
     30 C22        45.6780  133.4480   27.6570 C.3       1 LQQ   -0.0201
     31 N07        44.5970  132.4610   27.3980 N.4       1 LQQ    0.2415
     32 C23        43.5630  133.0250   26.4880 C.3       1 LQQ   -0.0201
     33 C24        42.9910  134.2950   27.0710 C.3       1 LQQ    0.0508
     34 H07        39.2048  143.5971   28.0424 H         1 LQQ    0.0849
     35 H10        39.2592  138.0828   29.7313 H         1 LQQ    0.0511
     36 H112       39.8276  138.3198   31.9169 H         1 LQQ    0.0286
     37 H113       38.2130  138.9402   32.3783 H         1 LQQ    0.0286
     38 H122       39.0915  136.0833   31.9138 H         1 LQQ    0.0267
     39 H123       38.0889  136.7612   33.2298 H         1 LQQ    0.0267
     40 H132       36.9252  135.4883   31.2542 H         1 LQQ    0.0267
     41 H133       36.2331  137.0255   31.8479 H         1 LQQ    0.0267
     42 H142       36.4328  137.6164   29.6132 H         1 LQQ    0.0286
     43 H143       37.7786  136.4723   29.3341 H         1 LQQ    0.0286
     44 H04        42.6842  141.0844   27.4915 H         1 LQQ    0.1574
     45 H17        43.3557  136.9605   25.4972 H         1 LQQ    0.0861
     46 H19        43.8341  136.5462   29.7056 H         1 LQQ    0.0644
     47 H20        42.9270  138.8317   29.9876 H         1 LQQ    0.0660
     48 H212       45.8901  135.4477   28.3702 H         1 LQQ    0.0524
     49 H213       44.6605  134.4850   29.2211 H         1 LQQ    0.0524
     50 H222       46.3967  133.0203   28.3560 H         1 LQQ    0.0830
     51 H223       46.1822  133.6861   26.7204 H         1 LQQ    0.0830
     52 HN02       44.9975  131.6376   26.9718 H         1 LQQ    0.1982
     53 HN03       44.1644  132.2047   28.2739 H         1 LQQ    0.1982
     54 H232       42.7626  132.2966   26.3575 H         1 LQQ    0.0830
     55 H233       44.0141  133.2432   25.5200 H         1 LQQ    0.0830
     56 H242       42.4585  134.0581   27.9921 H         1 LQQ    0.0524
     57 H243       42.2962  134.7377   26.3573 H         1 LQQ    0.0524
     58 H051       37.4031  144.1219   28.2848 H         1 LQQ    0.0280
     59 H052       35.7104  143.5793   28.3735 H         1 LQQ    0.0280
     60 H053       36.4964  144.2806   29.8083 H         1 LQQ    0.0280
     61 H011       32.8954  141.9573   30.6299 H         1 LQQ    0.0314
     62 H012       33.6435  141.6093   29.0529 H         1 LQQ    0.0314
     63 H013       33.6856  140.3876   30.3468 H         1 LQQ    0.0314
@<TRIPOS>BOND
     1    3    2 1
     2    2    1 2
     3    2    4 2
     4    4    5 2
     5    4   19 1
     6    5    6 1
     7    5    7 1
     8    7    8 ar
     9    7   12 ar
    10    8    9 ar
    11   10    9 ar
    12   10   11 ar
    13   10   21 1
    14   12   11 ar
    15   12   13 1
    16   14   13 1
    17   14   15 1
    18   14   18 1
    19   15   16 1
    20   16   17 1
    21   17   18 1
    22   19   13 am
    23   19   20 2
    24   22   21 1
    25   22   23 ar
    26   22   27 ar
    27   24   23 ar
    28   24   25 ar
    29   25   26 ar
    30   25   28 1
    31   26   27 ar
    32   29   28 1
    33   29   30 1
    34   30   31 1
    35   32   31 1
    36   32   33 1
    37   33   28 1
    38   34    8 1
    39   35   14 1
    40   36   15 1
    41   37   15 1
    42   38   16 1
    43   39   16 1
    44   40   17 1
    45   41   17 1
    46   42   18 1
    47   43   18 1
    48   44   21 1
    49   45   24 1
    50   46   26 1
    51   47   27 1
    52   48   29 1
    53   49   29 1
    54   50   30 1
    55   51   30 1
    56   52   31 1
    57   53   31 1
    58   54   32 1
    59   55   32 1
    60   56   33 1
    61   57   33 1
    62   58    6 1
    63   59    6 1
    64   60    6 1
    65   61    3 1
    66   62    3 1
    67   63    3 1
@<TRIPOS>SUBSTRUCTURE
     1 LQQ     1 RESIDUE           4 A     LQQ     0 ROOT
