@<TRIPOS>MOLECULE
2euf
63 67 1 0 0
SMALL
AMBER ff14SB


@<TRIPOS>ATOM
      1 O01        32.4090   28.5440   60.1410 O.2       1 LQQ   -0.2943
      2 C02        33.0080   27.5190   59.9010 C.2       1 LQQ    0.1649
      3 C01        34.3120   27.5070   59.1620 C.3       1 LQQ   -0.0007
      4 C03        32.4150   26.2120   60.3390 C.2       1 LQQ    0.0841
      5 C04        32.6480   25.6900   61.6150 C.2       1 LQQ   -0.0226
      6 C05        33.4290   26.4260   62.6690 C.3       1 LQQ   -0.0381
      7 C06        31.9290   24.4600   62.0050 C.ar      1 LQQ    0.0376
      8 C07        32.1990   23.7830   63.2720 C.ar      1 LQQ    0.0417
      9 N01        31.5880   22.6260   63.5420 N.ar      1 LQQ   -0.2226
     10 C08        30.8720   21.9680   62.6070 C.ar      1 LQQ    0.2209
     11 N02        30.7030   22.5010   61.3540 N.ar      1 LQQ   -0.1985
     12 C09        31.2660   23.6800   60.9670 C.ar      1 LQQ    0.1399
     13 N03        31.0700   24.2300   59.7410 N.am      1 LQQ   -0.2480
     14 C10        30.2950   23.4750   58.7390 C.3       1 LQQ    0.0323
     15 C11        29.2130   24.2680   58.0150 C.3       1 LQQ   -0.0340
     16 C12        29.2870   23.8720   56.5360 C.3       1 LQQ   -0.0515
     17 C13        30.5060   22.9550   56.3320 C.3       1 LQQ   -0.0515
     18 C14        31.2520   22.9450   57.6650 C.3       1 LQQ   -0.0340
     19 C15        31.6630   25.4930   59.4060 C.2       1 LQQ    0.2551
     20 O02        31.5220   26.0010   58.2620 O.2       1 LQQ   -0.2711
     21 N04        30.3500   20.7760   63.0170 N.pl3     1 LQQ   -0.2681
     22 C16        29.6660   19.8610   62.2880 C.ar      1 LQQ    0.1239
     23 N05        29.5140   18.6170   62.8010 N.ar      1 LQQ   -0.2393
     24 C17        28.8440   17.6710   62.1330 C.ar      1 LQQ    0.0503
     25 C18        28.2800   17.9460   60.8870 C.ar      1 LQQ    0.0477
     26 C19        28.4240   19.2200   60.3470 C.ar      1 LQQ   -0.0359
     27 C20        29.1170   20.1840   61.0520 C.ar      1 LQQ   -0.0196
     28 N06        27.5710   16.9530   60.1740 N.3       1 LQQ   -0.3191
     29 C21        28.4660   15.8000   59.9060 C.3       1 LQQ    0.0508
     30 C22        27.7120   14.6830   59.1890 C.3       1 LQQ   -0.0201
     31 N07        27.0440   15.1960   58.0030 N.4       1 LQQ    0.2415
     32 C23        26.3410   16.4760   58.0250 C.3       1 LQQ   -0.0201
     33 C24        26.9860   17.5260   58.9330 C.3       1 LQQ    0.0508
     34 H07        32.8868   24.2146   63.9841 H         1 LQQ    0.0849
     35 H10        29.8266   22.6244   59.2342 H         1 LQQ    0.0511
     36 H112       29.3938   25.3371   58.1264 H         1 LQQ    0.0286
     37 H113       28.2332   24.0132   58.4189 H         1 LQQ    0.0286
     38 H122       28.3778   23.3420   56.2522 H         1 LQQ    0.0267
     39 H123       29.3955   24.7666   55.9228 H         1 LQQ    0.0267
     40 H132       31.1469   23.3470   55.5422 H         1 LQQ    0.0267
     41 H133       30.1771   21.9467   56.0803 H         1 LQQ    0.0267
     42 H142       31.5591   21.9284   57.9107 H         1 LQQ    0.0286
     43 H143       32.1285   23.5898   57.6017 H         1 LQQ    0.0286
     44 H04        30.4917   20.5456   63.9901 H         1 LQQ    0.1574
     45 H17        28.7388   16.6856   62.5623 H         1 LQQ    0.0861
     46 H19        27.9967   19.4534   59.3830 H         1 LQQ    0.0644
     47 H20        29.2315   21.1788   60.6475 H         1 LQQ    0.0660
     48 H212       29.2955   16.1297   59.2804 H         1 LQQ    0.0524
     49 H213       28.8566   15.4212   60.8505 H         1 LQQ    0.0524
     50 H222       28.4176   13.9061   58.8948 H         1 LQQ    0.0830
     51 H223       26.9698   14.2581   59.8648 H         1 LQQ    0.0830
     52 HN02       27.7512   15.2702   57.2857 H         1 LQQ    0.1982
     53 HN03       26.3826   14.4943   57.7025 H         1 LQQ    0.1982
     54 H232       26.3160   16.8705   57.0092 H         1 LQQ    0.0830
     55 H233       25.3174   16.3066   58.3592 H         1 LQQ    0.0830
     56 H242       26.2251   18.2542   59.2139 H         1 LQQ    0.0524
     57 H243       27.7724   18.0362   58.3768 H         1 LQQ    0.0524
     58 H051       33.7966   27.3667   62.2590 H         1 LQQ    0.0280
     59 H052       34.2730   25.8147   62.9886 H         1 LQQ    0.0280
     60 H053       32.7837   26.6297   63.5235 H         1 LQQ    0.0280
     61 H011       34.6015   28.5292   58.9183 H         1 LQQ    0.0314
     62 H012       35.0797   27.0515   59.7876 H         1 LQQ    0.0314
     63 H013       34.2035   26.9312   58.2429 H         1 LQQ    0.0314
@<TRIPOS>BOND
     1    1    2 2
     2    2    3 1
     3    2    4 2
     4    4    5 2
     5    4   19 1
     6    5    6 1
     7    5    7 1
     8    7    8 ar
     9    7   12 ar
    10    8    9 ar
    11    9   10 ar
    12   10   11 ar
    13   10   21 1
    14   11   12 ar
    15   12   13 1
    16   13   14 1
    17   13   19 am
    18   14   15 1
    19   14   18 1
    20   15   16 1
    21   16   17 1
    22   17   18 1
    23   19   20 2
    24   21   22 1
    25   22   23 ar
    26   22   27 ar
    27   23   24 ar
    28   24   25 ar
    29   25   26 ar
    30   25   28 1
    31   26   27 ar
    32   28   29 1
    33   28   33 1
    34   29   30 1
    35   30   31 1
    36   31   32 1
    37   32   33 1
    38   34    8 1
    39   35   14 1
    40   36   15 1
    41   37   15 1
    42   38   16 1
    43   39   16 1
    44   40   17 1
    45   41   17 1
    46   42   18 1
    47   43   18 1
    48   44   21 1
    49   45   24 1
    50   46   26 1
    51   47   27 1
    52   48   29 1
    53   49   29 1
    54   50   30 1
    55   51   30 1
    56   52   31 1
    57   53   31 1
    58   54   32 1
    59   55   32 1
    60   56   33 1
    61   57   33 1
    62   58    6 1
    63   59    6 1
    64   60    6 1
    65   61    3 1
    66   62    3 1
    67   63    3 1
@<TRIPOS>SUBSTRUCTURE
     1 LQQ     1 RESIDUE           4 B     LQQ     0 ROOT
