@<TRIPOS>MOLECULE
AMP-PNP.pdb
44 46 1 0 0
SMALL
AMBER ff14SB


@<TRIPOS>ATOM
      1 PG         27.3580   54.9310   37.3430 P.3       1 ANP   -0.0025
      2 O1G        27.0300   53.6790   38.0080 O.co2     1 ANP   -0.6427
      3 O2G        26.0020   55.7030   37.0430 O.co2     1 ANP   -0.6427
      4 O3G        28.1010   54.5900   35.9860 O.co2     1 ANP   -0.6427
      5 PB         28.2810   57.5070   38.5250 P.3       1 ANP    0.2045
      6 O1B        29.1230   57.8370   39.8260 O.co2     1 ANP   -0.5189
      7 O2B        26.9270   58.0050   38.7040 O.co2     1 ANP   -0.5189
      8 N3B        28.3300   55.8890   38.2550 N.pl3     1 ANP   -0.2336
      9 PA         28.4990   58.8730   35.9690 P.3       1 ANP    0.2680
     10 O1A        27.0570   58.3980   35.7160 O.co2     1 ANP   -0.5098
     11 O2A        28.5310   60.3530   36.0950 O.co2     1 ANP   -0.5098
     12 O3A        29.0180   58.2170   37.3250 O.3       1 ANP   -0.2659
     13 O5'        29.4510   58.2990   34.8100 O.3       1 ANP   -0.3185
     14 C5'        29.3260   57.0090   34.1690 C.3       1 ANP    0.0838
     15 C4'        30.6950   56.5460   33.7320 C.3       1 ANP    0.1124
     16 O4'        31.3120   57.5380   32.8770 O.3       1 ANP   -0.3484
     17 C3'        31.6900   56.2530   34.8570 C.3       1 ANP    0.1126
     18 O3'        32.3890   55.0320   34.6360 O.3       1 ANP   -0.3874
     19 C2'        32.5930   57.4910   34.8580 C.3       1 ANP    0.1257
     20 O2'        33.9100   57.2170   35.3170 O.3       1 ANP   -0.3858
     21 C1'        32.5820   57.9020   33.3810 C.3       1 ANP    0.1588
     22 N9         32.7740   59.3370   33.1600 N.ar      1 ANP   -0.2445
     23 C8         32.1610   60.3550   33.8440 C.ar      1 ANP    0.0912
     24 N7         32.6130   61.5500   33.5470 N.ar      1 ANP   -0.2337
     25 C5         33.5860   61.3050   32.5930 C.ar      1 ANP    0.1451
     26 C6         34.4490   62.1580   31.8770 C.ar      1 ANP    0.1462
     27 N6         34.4530   63.4930   32.0070 N.pl3     1 ANP   -0.3413
     28 N1         35.3000   61.5910   30.9890 N.ar      1 ANP   -0.2195
     29 C2         35.2560   60.2650   30.8130 C.ar      1 ANP    0.1195
     30 N3         34.4840   59.3620   31.4260 N.ar      1 ANP   -0.2186
     31 C4         33.6790   59.9450   32.3230 C.ar      1 ANP    0.1586
     32 H3B        29.0800   55.4040   38.7265 H         1 ANP    0.1362
     33 H5'        28.6738   57.0940   33.2998 H         1 ANP    0.0601
     34 H5''       28.9050   56.2908   34.8726 H         1 ANP    0.0601
     35 H4'        30.5697   55.6332   33.1496 H         1 ANP    0.0658
     36 H3'        31.1555   56.1959   35.8052 H         1 ANP    0.0659
     37 H2'        32.1444   58.2771   35.4653 H         1 ANP    0.0675
     38 H1'        33.3542   57.3484   32.8468 H         1 ANP    0.0854
     39 H8         31.3743   60.1875   34.5647 H         1 ANP    0.1018
     40 H2         35.9378   59.8703   30.0743 H         1 ANP    0.1064
     41 H61        33.8196   63.9392   32.6549 H         1 ANP    0.1442
     42 H62        35.0894   64.0520   31.4569 H         1 ANP    0.1442
     43 HO2'       33.8806   56.9635   36.2425 H         1 ANP    0.2108
     44 HO3'       33.0030   54.8790   35.3580 H         1 ANP    0.2107
@<TRIPOS>BOND
     1   21   16 1
     2   21   19 1
     3   21   22 1
     4   29   28 ar
     5   29   30 ar
     6   19   17 1
     7   19   20 1
     8   17   15 1
     9   17   18 1
    10   31   22 ar
    11   31   25 ar
    12   31   30 ar
    13   15   14 1
    14   15   16 1
    15   25   24 ar
    16   25   26 ar
    17   14   13 1
    18   26   27 1
    19   26   28 ar
    20   23   22 ar
    21   23   24 ar
    22    8    1 1
    23    8    5 1
    24   10    9 1
    25    6    5 1
    26    2    1 1
    27   11    9 1
    28    7    5 1
    29    3    1 1
    30   12    5 1
    31   12    9 1
    32    4    1 1
    33   13    9 1
    34   32    8 1
    35   33   14 1
    36   34   14 1
    37   35   15 1
    38   36   17 1
    39   37   19 1
    40   38   21 1
    41   39   23 1
    42   40   29 1
    43   41   27 1
    44   42   27 1
    45   43   20 1
    46   44   18 1
@<TRIPOS>SUBSTRUCTURE
     1 ANP    15 RESIDUE           4 A     ANP     0 ROOT
