
##########                                Name:     1G3N_AMPPNP.pdb
##########                DOCK_Rotatable_Bonds:                  10
##########                    Molecular_Weight:             502.168
##########                       Formal_Charge:             -3.9997
##########                          Grid_Score:          -78.928749
##########                     Grid_vdw_energy:          -56.162186
##########                      Grid_es_energy:          -22.766563
##########           Internal_energy_repulsive:            9.823326

@<TRIPOS>MOLECULE
1G3N_AMPPNP.pdb
 44 46 1 0 0
SMALL
AMBER ff14SB


@<TRIPOS>ATOM
      1 PG         23.6241   -1.8960   10.5678 P.3     1  ANP        -0.0025
      2 O1G        23.3288   -2.6941    9.3877 O.co2   1  ANP        -0.6427
      3 O2G        24.3740   -2.8233   11.6186 O.co2   1  ANP        -0.6427
      4 O3G        22.2517   -1.3860   11.1742 O.co2   1  ANP        -0.6427
      5 PB         24.6318    0.3522    8.8909 P.3     1  ANP         0.2045
      6 O1B        24.7006    1.8699    9.3439 O.co2   1  ANP        -0.5189
      7 O2B        23.4803    0.1747    8.0215 O.co2   1  ANP        -0.5189
      8 N3B        24.5696   -0.5994   10.2262 N.pl3   1  ANP        -0.2336
      9 PA         27.4379    0.7034    8.2224 P.3     1  ANP         0.2680
     10 O1A        27.9476    0.9348    6.7885 O.co2   1  ANP        -0.5098
     11 O2A        27.3538    1.9994    8.9454 O.co2   1  ANP        -0.5098
     12 O3A        25.9885    0.0478    8.1461 O.3     1  ANP        -0.2659
     13 O5'        28.3757   -0.3826    8.9440 O.3     1  ANP        -0.3185
     14 C5'        28.6982   -1.6973    8.4356 C.3     1  ANP         0.0838
     15 C4'        29.4562   -2.4581    9.4972 C.3     1  ANP         0.1124
     16 O4'        30.8680   -2.4946    9.1797 O.3     1  ANP        -0.3484
     17 C3'        29.3379   -1.9093   10.9208 C.3     1  ANP         0.1126
     18 O3'        29.1055   -2.9494   11.8670 O.3     1  ANP        -0.3874
     19 C2'        30.6666   -1.1741   11.1249 C.3     1  ANP         0.1257
     20 O2'        31.0793   -1.1388   12.4839 O.3     1  ANP        -0.3858
     21 C1'        31.6302   -1.9986   10.2623 C.3     1  ANP         0.1588
     22 N9         32.7542   -1.2299    9.7235 N.ar    1  ANP        -0.2445
     23 C8         32.9037   -0.8069    8.4275 C.ar    1  ANP         0.0912
     24 N7         33.9319   -0.0149    8.2363 N.ar    1  ANP        -0.2337
     25 C5         34.5077    0.0842    9.4920 C.ar    1  ANP         0.1451
     26 C6         35.6320    0.7872    9.9680 C.ar    1  ANP         0.1462
     27 N6         36.4223    1.5413    9.1897 N.pl3   1  ANP        -0.3413
     28 N1         35.9408    0.6660   11.2806 N.ar    1  ANP        -0.2195
     29 C2         35.1898   -0.1340   12.0461 C.ar    1  ANP         0.1195
     30 N3         34.1116   -0.8486   11.7094 N.ar    1  ANP        -0.2186
     31 C4         33.8078   -0.6820   10.4161 C.ar    1  ANP         0.1586
     32 H3B        25.2189   -0.3449   10.9567 H       1  ANP         0.1362
     33 H5'        29.3143   -1.6029    7.5423 H       1  ANP         0.0601
     34 H5''       27.7787   -2.2292    8.1916 H       1  ANP         0.0601
     35 H4'        29.0864   -3.4832    9.5013 H       1  ANP         0.0658
     36 H3'        28.5189   -1.1926   10.9647 H       1  ANP         0.0659
     37 H2'        30.5931   -0.1601   10.7330 H       1  ANP         0.0675
     38 H1'        32.0124   -2.8352   10.8475 H       1  ANP         0.0854
     39 H8         32.2330   -1.0998    7.6338 H       1  ANP         0.1018
     40 H2         35.4973   -0.2140   13.0783 H       1  ANP         0.1064
     41 H61        36.2183    1.6380    8.2051 H       1  ANP         0.1442
     42 H62        37.2215    2.0127    9.5878 H       1  ANP         0.1442
     43 HO2'       30.4171   -0.6845   13.0097 H       1  ANP         0.2108
     44 HO3'       29.0935   -2.5797   12.7533 H       1  ANP         0.2107
@<TRIPOS>BOND
     1    21    16    1
     2    21    19    1
     3    21    22    1
     4    21    38    1
     5    29    40    1
     6    29    28   ar
     7    29    30   ar
     8    19    37    1
     9    19    17    1
    10    19    20    1
    11    17    36    1
    12    17    15    1
    13    17    18    1
    14    31    22   ar
    15    31    25   ar
    16    31    30   ar
    17    15    35    1
    18    15    16    1
    19    15    14    1
    20    25    24   ar
    21    25    26   ar
    22    14    34    1
    23    14    33    1
    24    14    13    1
    25    26    27    1
    26    26    28   ar
    27    23    22   ar
    28    23    24   ar
    29    23    39    1
    30    32     8    1
    31    41    27    1
    32    42    27    1
    33    43    20    1
    34    44    18    1
    35     8     1    1
    36     8     5    1
    37    10     9    1
    38     6     5    1
    39     2     1    1
    40    11     9    1
    41     7     5    1
    42     3     1    1
    43    12     5    1
    44    12     9    1
    45     4     1    1
    46    13     9    1
@<TRIPOS>SUBSTRUCTURE
     1 ANP         1 TEMP              0 ****  ****    0 ROOT

