@<TRIPOS>MOLECULE
5T35.pdb
127 133 1 0 0
SMALL
AMBER ff14SB


@<TRIPOS>ATOM
      1 CAA        12.1900  -24.0970  -13.1860 C.3       1 759   -0.0210
      2 CBZ        12.7800  -22.8740  -12.4670 C.ar      1 759    0.0524
      3 NBI        11.9740  -21.9220  -11.9440 N.ar      1 759   -0.2532
      4 CAV        12.5910  -20.8930  -11.3580 C.ar      1 759    0.0649
      5 SBR        14.2020  -21.1670  -11.4740 S.2       1 759   -0.0754
      6 CCH        14.0880  -22.6490  -12.3090 C.ar      1 759    0.0416
      7 CCF        15.1210  -23.4320  -12.6950 C.ar      1 759   -0.0098
      8 CAU        16.1730  -23.6240  -11.7980 C.ar      1 759   -0.0531
      9 CAQ        17.2690  -24.4240  -12.1270 C.ar      1 759   -0.0528
     10 CAT        15.2070  -24.0710  -13.9460 C.ar      1 759   -0.0531
     11 CAP        16.3100  -24.8760  -14.2750 C.ar      1 759   -0.0528
     12 CCA        17.3690  -25.0570  -13.3730 C.ar      1 759   -0.0071
     13 CBC        18.4570  -25.8660  -13.6930 C.2       1 759    0.0380
     14 NBM        19.6910  -25.3240  -13.0650 N.2       1 759   -0.2196
     15 C          20.5260  -24.4390  -13.6640 C.2       1 759    0.2659
     16 O          20.3610  -24.0100  -14.8110 O.2       1 759   -0.2704
     17 CA         21.6220  -24.0140  -12.8590 C.3       1 759    0.1092
     18 CB         21.2120  -22.8140  -12.0060 C.3       1 759    0.0025
     19 CG         22.4830  -21.9950  -11.8410 C.3       1 759    0.0720
     20 OD1        23.2650  -22.4900  -10.7380 O.3       1 759   -0.3914
     21 CD2        23.2540  -22.1880  -13.1480 C.3       1 759    0.0412
     22 N          22.8690  -23.5530  -13.6170 N.am      1 759   -0.2853
     23 CBW        23.4900  -24.3530  -14.5060 C.2       1 759    0.2360
     24 OAK        23.0970  -25.4920  -14.7610 O.2       1 759   -0.2753
     25 CCN        24.7910  -23.8610  -15.1550 C.3       1 759    0.1043
     26 CCQ        24.6610  -23.4100  -16.6370 C.3       1 759   -0.0110
     27 CAF        26.0730  -23.3150  -17.2250 C.3       1 759   -0.0579
     28 CAG        23.8280  -24.3700  -17.4950 C.3       1 759   -0.0579
     29 CAE        24.0030  -22.0330  -16.7370 C.3       1 759   -0.0579
     30 NBN        25.6310  -25.0530  -15.0980 N.am      1 759   -0.3012
     31 CBT        26.7590  -25.1800  -14.3920 C.2       1 759    0.2383
     32 OAH        27.3250  -24.2720  -13.7710 O.2       1 759   -0.2750
     33 CBD        27.3550  -26.5780  -14.5400 C.3       1 759    0.1233
     34 OBQ        27.5130  -26.5970  -15.9740 O.3       1 759   -0.3695
     35 CBB        27.4510  -27.7970  -16.7090 C.3       1 759    0.0707
     36 CBA        26.4470  -27.5180  -17.8410 C.3       1 759    0.0701
     37 OBP        25.3780  -28.4820  -17.8320 O.3       1 759   -0.3767
     38 CAZ        24.3280  -28.1870  -16.9310 C.3       1 759    0.0701
     39 CAY        23.1160  -29.0280  -17.3700 C.3       1 759    0.0701
     40 OBO        22.9930  -29.1120  -18.8140 O.3       1 759   -0.3774
     41 CAX        21.7870  -28.5580  -19.2670 C.3       1 759    0.0622
     42 CAW        20.6260  -29.5430  -19.0270 C.3       1 759    0.0345
     43 NBL        21.0130  -30.9560  -18.7790 N.am      1 759   -0.3130
     44 CBU        20.9000  -31.5970  -17.5750 C.2       1 759    0.2143
     45 OAI        20.5370  -31.0540  -16.5290 O.2       1 759   -0.2777
     46 CBE        21.2890  -33.1030  -17.5870 C.3       1 759    0.0540
     47 CCL        21.5820  -33.6400  -16.1750 C.3       1 759    0.1173
     48 NBH        22.8600  -33.0970  -15.6750 N.2       1 759   -0.2722
     49 CCG        21.6820  -35.0520  -16.0730 C.ar      1 759    0.1548
     50 NBK        21.5110  -35.9100  -17.0840 N.ar      1 759   -0.1352
     51 NBJ        21.6650  -37.0860  -16.6590 N.ar      1 759   -0.1379
     52 CCB        21.9400  -37.0280  -15.3580 C.ar      1 759    0.1263
     53 CAB        22.1820  -38.2400  -14.4610 C.3       1 759   -0.0058
     54 NCP        21.9700  -35.7620  -14.9740 N.ar      1 759   -0.2337
     55 CCJ        22.1800  -35.2040  -13.7750 C.ar      1 759    0.0880
     56 SBS        21.5840  -35.8540  -12.2890 S.2       1 759   -0.0777
     57 CCC        22.1870  -34.6300  -11.3970 C.ar      1 759   -0.0084
     58 CAC        22.0460  -34.5230   -9.8720 C.3       1 759   -0.0330
     59 CCD        22.8150  -33.7430  -12.1920 C.ar      1 759   -0.0296
     60 CAD        23.4740  -32.4950  -11.5820 C.3       1 759   -0.0382
     61 CCI        22.8260  -34.0530  -13.5180 C.ar      1 759    0.0330
     62 CBX        23.4020  -33.2950  -14.4710 C.2       1 759    0.0755
     63 CCE        24.6430  -32.6870  -14.2910 C.ar      1 759    0.0005
     64 CAR        25.7300  -33.3770  -13.7560 C.ar      1 759   -0.0513
     65 CAN        26.9620  -32.7390  -13.5830 C.ar      1 759   -0.0429
     66 CBY        27.1250  -31.4080  -13.9500 C.ar      1 759    0.0406
     67 CL1        28.6800  -30.5780  -13.7290 Cl        1 759   -0.0843
     68 CAO        26.0410  -30.7300  -14.4950 C.ar      1 759   -0.0429
     69 CAS        24.8110  -31.3620  -14.6650 C.ar      1 759   -0.0513
     70 HAV        12.1171  -20.0403  -10.8946 H         1 759    0.0920
     71 HAU        16.1386  -23.1445  -10.8309 H         1 759    0.0630
     72 HAQ        18.0592  -24.5582  -11.4032 H         1 759    0.0630
     73 HAT        14.4117  -23.9402  -14.6649 H         1 759    0.0630
     74 HAP        16.3433  -25.3636  -15.2381 H         1 759    0.0630
     75 HBC        18.4111  -26.7542  -14.3057 H         1 759    0.0848
     76 HA         21.9023  -24.8318  -12.1951 H         1 759    0.0612
     77 HB2        20.4430  -22.2298  -12.5115 H         1 759    0.0318
     78 HB3        20.8515  -23.1492  -11.0335 H         1 759    0.0318
     79 HG         22.2410  -20.9424  -11.6938 H         1 759    0.0618
     80 HD22       22.9642  -21.4342  -13.8800 H         1 759    0.0497
     81 HD23       24.3272  -22.1414  -12.9632 H         1 759    0.0497
     82 HCN        25.2306  -23.0629  -14.5568 H         1 759    0.0611
     83 HBN        25.3340  -25.8522  -15.6395 H         1 759    0.1503
     84 HBD2       28.3088  -26.6739  -14.0213 H         1 759    0.0669
     85 HBD3       26.6506  -27.3424  -14.2120 H         1 759    0.0669
     86 HBB2       28.4300  -28.0468  -17.1181 H         1 759    0.0591
     87 HBB3       27.0894  -28.6077  -16.0764 H         1 759    0.0591
     88 HBA2       26.0283  -26.5205  -17.7080 H         1 759    0.0591
     89 HBA3       26.9645  -27.5651  -18.7992 H         1 759    0.0591
     90 HAZ2       24.6201  -28.4519  -15.9148 H         1 759    0.0591
     91 HAZ3       24.0820  -27.1264  -16.9820 H         1 759    0.0591
     92 HAY2       23.2260  -30.0357  -16.9692 H         1 759    0.0591
     93 HAY3       22.2089  -28.5817  -16.9625 H         1 759    0.0591
     94 HAX2       21.5909  -27.6319  -18.7267 H         1 759    0.0583
     95 HAX3       21.8653  -28.3447  -20.3331 H         1 759    0.0583
     96 HAW2       20.0658  -29.1934  -18.1598 H         1 759    0.0491
     97 HAW3       19.9673  -29.5150  -19.8950 H         1 759    0.0491
     98 HBL        21.3869  -31.4820  -19.5559 H         1 759    0.1494
     99 HBE2       20.4658  -33.6745  -18.0157 H         1 759    0.0392
    100 HBE3       22.1747  -33.2359  -18.2082 H         1 759    0.0392
    101 HCL        20.7855  -33.3053  -15.5104 H         1 759    0.0640
    102 HAR        25.6194  -34.4133  -13.4728 H         1 759    0.0630
    103 HAN        27.7933  -33.2843  -13.1611 H         1 759    0.0639
    104 HAO        26.1538  -29.6976  -14.7912 H         1 759    0.0639
    105 HAS        23.9823  -30.8161  -15.0911 H         1 759    0.0630
    106 HAE1       24.5659  -21.3165  -16.1388 H         1 759    0.0237
    107 HAE2       23.9942  -21.7095  -17.7779 H         1 759    0.0237
    108 HAE3       22.9797  -22.0915  -16.3661 H         1 759    0.0237
    109 HAG1       24.2640  -25.3681  -17.4519 H         1 759    0.0237
    110 HAG2       23.8211  -24.0211  -18.5276 H         1 759    0.0237
    111 HAG3       22.8066  -24.4030  -17.1158 H         1 759    0.0237
    112 HAF1       26.0129  -22.9998  -18.2667 H         1 759    0.0237
    113 HAF2       26.6540  -22.5873  -16.6584 H         1 759    0.0237
    114 HAF3       26.5568  -24.2901  -17.1678 H         1 759    0.0237
    115 HAA1       11.1254  -24.1710  -12.9640 H         1 759    0.0296
    116 HAA2       12.6961  -24.9992  -12.8425 H         1 759    0.0296
    117 HAA3       12.3302  -23.9888  -14.2615 H         1 759    0.0296
    118 HAB1       22.3953  -39.1127  -15.0783 H         1 759    0.0310
    119 HAB2       23.0302  -38.0429  -13.8054 H         1 759    0.0310
    120 HAB3       21.2935  -38.4294  -13.8586 H         1 759    0.0310
    121 HAD1       23.0986  -32.3432  -10.5700 H         1 759    0.0280
    122 HAD2       23.2358  -31.6237  -12.1921 H         1 759    0.0280
    123 HAD3       24.5548  -32.6329  -11.5517 H         1 759    0.0280
    124 HD1        22.7784  -22.3674   -9.9196 H         1 759    0.2105
    125 HAC1       21.4884  -35.3812   -9.4970 H         1 759    0.0285
    126 HAC2       21.5136  -33.6059   -9.6201 H         1 759    0.0285
    127 HAC3       23.0358  -34.5054   -9.4159 H         1 759    0.0285
@<TRIPOS>BOND
     1   15   14 2
     2   15   16 2
     3   15   17 1
     4   17   18 1
     5   17   22 1
     6    1    2 1
     7   53   52 1
     8   58   57 1
     9   60   59 1
    10   29   26 1
    11   27   26 1
    12   28   26 1
    13   65   64 ar
    14   65   66 ar
    15   68   66 ar
    16   68   69 ar
    17   11   10 ar
    18   11   12 ar
    19    9    8 ar
    20    9   12 ar
    21   64   63 ar
    22   69   63 ar
    23   10    7 ar
    24    8    7 ar
    25    4    3 ar
    26    4    5 ar
    27   42   41 1
    28   42   43 1
    29   41   40 1
    30   39   38 1
    31   39   40 1
    32   38   37 1
    33   18   19 1
    34   36   35 1
    35   36   37 1
    36   35   34 1
    37   13   12 1
    38   13   14 2
    39   33   31 1
    40   33   34 1
    41   46   44 1
    42   46   47 1
    43   31   30 am
    44   31   32 2
    45   44   43 am
    46   44   45 2
    47   23   22 am
    48   23   24 2
    49   23   25 1
    50   62   48 2
    51   62   61 1
    52   62   63 1
    53   66   67 1
    54    2    3 ar
    55    2    6 ar
    56   52   51 ar
    57   52   54 ar
    58   57   56 ar
    59   57   59 ar
    60   59   61 ar
    61    7    6 1
    62   49   47 1
    63   49   50 ar
    64   49   54 ar
    65    6    5 ar
    66   61   55 ar
    67   55   54 1
    68   55   56 ar
    69   47   48 1
    70   25   26 1
    71   25   30 1
    72   21   19 1
    73   21   22 1
    74   19   20 1
    75   51   50 ar
    76   70    4 1
    77   71    8 1
    78   72    9 1
    79   73   10 1
    80   74   11 1
    81   75   13 1
    82   76   17 1
    83   77   18 1
    84   78   18 1
    85   79   19 1
    86   80   21 1
    87   81   21 1
    88   82   25 1
    89   83   30 1
    90   84   33 1
    91   85   33 1
    92   86   35 1
    93   87   35 1
    94   88   36 1
    95   89   36 1
    96   90   38 1
    97   91   38 1
    98   92   39 1
    99   93   39 1
   100   94   41 1
   101   95   41 1
   102   96   42 1
   103   97   42 1
   104   98   43 1
   105   99   46 1
   106  100   46 1
   107  101   47 1
   108  102   64 1
   109  103   65 1
   110  104   68 1
   111  105   69 1
   112  106   29 1
   113  107   29 1
   114  108   29 1
   115  109   28 1
   116  110   28 1
   117  111   28 1
   118  112   27 1
   119  113   27 1
   120  114   27 1
   121  115    1 1
   122  116    1 1
   123  117    1 1
   124  118   53 1
   125  119   53 1
   126  120   53 1
   127  121   60 1
   128  122   60 1
   129  123   60 1
   130  124   20 1
   131  125   58 1
   132  126   58 1
   133  127   58 1
@<TRIPOS>SUBSTRUCTURE
     1 759    17 RESIDUE           4 D     759     0 ROOT
