@<TRIPOS>MOLECULE
1G3N_AMPPNP.pdb
44 46 1 0 0
SMALL
AMBER ff14SB


@<TRIPOS>ATOM
      1 PG         31.1130   -5.0730   22.0370 P.3       1 ANP   -0.0025
      2 O1G        30.4520   -4.9990   20.7430 O.co2     1 ANP   -0.6427
      3 O2G        31.1800   -6.6000   22.4730 O.co2     1 ANP   -0.6427
      4 O3G        30.2510   -4.2470   23.0790 O.co2     1 ANP   -0.6427
      5 PB         33.3720   -3.5080   20.8840 P.3       1 ANP    0.2045
      6 O1B        32.6050   -2.1230   20.8010 O.co2     1 ANP   -0.5189
      7 O2B        33.3960   -4.1100   19.5610 O.co2     1 ANP   -0.5189
      8 N3B        32.6340   -4.4590   21.9990 N.pl3     1 ANP   -0.2336
      9 PA         35.6170   -1.8200   21.6290 P.3       1 ANP    0.2680
     10 O1A        34.6500   -0.7760   22.2160 O.co2     1 ANP   -0.5098
     11 O2A        36.7440   -2.0520   22.5700 O.co2     1 ANP   -0.5098
     12 O3A        34.8220   -3.1830   21.4130 O.3       1 ANP   -0.2659
     13 O5'        36.0800   -1.3430   20.1670 O.3       1 ANP   -0.3185
     14 C5'        35.2640   -0.6320   19.2080 C.3       1 ANP    0.0838
     15 C4'        36.1650   -0.0050   18.1710 C.3       1 ANP    0.1124
     16 O4'        37.0770   -0.9920   17.6330 O.3       1 ANP   -0.3484
     17 C3'        35.4570    0.6390   16.9770 C.3       1 ANP    0.1126
     18 O3'        36.0080    1.9160   16.6660 O.3       1 ANP   -0.3874
     19 C2'        35.6340   -0.3980   15.8630 C.3       1 ANP    0.1257
     20 O2'        35.6570    0.1790   14.5650 O.3       1 ANP   -0.3858
     21 C1'        36.9820   -1.0350   16.2230 C.3       1 ANP    0.1588
     22 N9         37.1170   -2.4280   15.7920 N.ar      1 ANP   -0.2445
     23 C8         38.1990   -2.9820   15.1570 C.ar      1 ANP    0.0912
     24 N7         38.1250   -4.2830   15.0060 N.ar      1 ANP   -0.2337
     25 C5         36.9040   -4.6100   15.5720 C.ar      1 ANP    0.1451
     26 C6         36.2340   -5.8380   15.7400 C.ar      1 ANP    0.1462
     27 N6         36.7180   -7.0140   15.3140 N.pl3     1 ANP   -0.3413
     28 N1         35.0210   -5.8160   16.3410 N.ar      1 ANP   -0.2195
     29 C2         34.5090   -4.6370   16.7120 C.ar      1 ANP    0.1195
     30 N3         35.0440   -3.4170   16.6020 N.ar      1 ANP   -0.2186
     31 C4         36.2570   -3.4720   16.0380 C.ar      1 ANP    0.1586
     32 H3B        33.2100   -4.7060   22.7910 H         1 ANP    0.1362
     33 H5'        34.6950    0.1450   19.7170 H         1 ANP    0.0601
     34 H5''       34.5800   -1.3290   18.7240 H         1 ANP    0.0601
     35 H4'        36.7570    0.7650   18.6650 H         1 ANP    0.0658
     36 H3'        34.3970    0.7490   17.2020 H         1 ANP    0.0659
     37 H2'        34.8430   -1.1450   15.9230 H         1 ANP    0.0675
     38 H1'        37.7880   -0.4430   15.7890 H         1 ANP    0.0854
     39 H8         39.0390   -2.3980   14.8120 H         1 ANP    0.1018
     40 H2         33.5280   -4.6760   17.1620 H         1 ANP    0.1064
     41 H61        37.6160   -7.0540   14.8530 H         1 ANP    0.1442
     42 H62        36.1850   -7.8600   15.4540 H         1 ANP    0.1442
     43 HO2'       35.9160   -0.4850   13.9220 H         1 ANP    0.2108
     44 HO3'       36.9520    1.8290   16.5120 H         1 ANP    0.2107
@<TRIPOS>BOND
     1   21   16 1
     2   21   19 1
     3   21   22 1
     4   21   38 1
     5   29   40 1
     6   29   28 ar
     7   29   30 ar
     8   19   37 1
     9   19   17 1
    10   19   20 1
    11   17   36 1
    12   17   15 1
    13   17   18 1
    14   31   22 ar
    15   31   25 ar
    16   31   30 ar
    17   15   35 1
    18   15   16 1
    19   15   14 1
    20   25   24 ar
    21   25   26 ar
    22   14   34 1
    23   14   33 1
    24   14   13 1
    25   26   27 1
    26   26   28 ar
    27   23   22 ar
    28   23   24 ar
    29   23   39 1
    30   32    8 1
    31   41   27 1
    32   42   27 1
    33   43   20 1
    34   44   18 1
    35    8    1 1
    36    8    5 1
    37   10    9 1
    38    6    5 1
    39    2    1 1
    40   11    9 1
    41    7    5 1
    42    3    1 1
    43   12    5 1
    44   12    9 1
    45    4    1 1
    46   13    9 1
@<TRIPOS>SUBSTRUCTURE
     1 ANP    15 RESIDUE           4 A     ANP     0 ROOT
