
##########                                Name:    AMP-PNP_1BI7.pdb
##########                DOCK_Rotatable_Bonds:                  10
##########                    Molecular_Weight:             502.168
##########                       Formal_Charge:             -3.9997
##########                          Grid_Score:          -83.485054
##########                     Grid_vdw_energy:          -58.783127
##########                      Grid_es_energy:          -24.701927
##########           Internal_energy_repulsive:            9.180443

@<TRIPOS>MOLECULE
AMP-PNP_1BI7.pdb
 44 46 1 0 0
SMALL
AMBER ff14SB


@<TRIPOS>ATOM
      1 PG        125.3120   54.3426   94.2061 P.3     1  ANP        -0.0025
      2 O1G       125.8631   54.0570   92.8894 O.co2   1  ANP        -0.6427
      3 O2G       123.8289   54.8790   94.0177 O.co2   1  ANP        -0.6427
      4 O3G       126.2114   55.4547   94.8881 O.co2   1  ANP        -0.6427
      5 PB        124.3393   51.6753   95.1170 P.3     1  ANP         0.2045
      6 O1B       123.5458   51.6616   93.7459 O.co2   1  ANP        -0.5189
      7 O2B       123.3834   51.6170   96.2113 O.co2   1  ANP        -0.5189
      8 N3B       125.2845   53.0157   95.1727 N.pl3   1  ANP        -0.2336
      9 PA        126.3652   49.8877   94.0467 P.3     1  ANP         0.2680
     10 O1A       126.4887   50.9181   92.9103 O.co2   1  ANP        -0.5098
     11 O2A       127.6763   49.7218   94.7269 O.co2   1  ANP        -0.5098
     12 O3A       125.2890   50.4172   95.0955 O.3     1  ANP        -0.2659
     13 O5'       125.7645   48.5209   93.4523 O.3     1  ANP        -0.3185
     14 C5'       126.0827   47.1857   93.9070 C.3     1  ANP         0.0838
     15 C4'       126.7216   46.4234   92.7711 C.3     1  ANP         0.1124
     16 O4'       126.2950   46.9658   91.4986 O.3     1  ANP        -0.3484
     17 C3'       128.2521   46.4096   92.7555 C.3     1  ANP         0.1126
     18 O3'       128.7636   45.1077   92.4924 O.3     1  ANP        -0.3874
     19 C2'       128.5989   47.4407   91.6754 C.3     1  ANP         0.1257
     20 O2'       129.8370   47.1710   91.0298 O.3     1  ANP        -0.3858
     21 C1'       127.4157   47.3113   90.7096 C.3     1  ANP         0.1588
     22 N9        127.1065   48.5410   89.9777 N.ar    1  ANP        -0.2445
     23 C8        125.9089   49.2080   89.9757 C.ar    1  ANP         0.0912
     24 N7        125.9376   50.3611   89.3503 N.ar    1  ANP        -0.2337
     25 C5        127.2423   50.4582   88.8995 C.ar    1  ANP         0.1451
     26 C6        127.9220   51.4505   88.1675 C.ar    1  ANP         0.1462
     27 N6        127.3448   52.5787   87.7279 N.pl3   1  ANP        -0.3413
     28 N1        129.2257   51.2334   87.8717 N.ar    1  ANP        -0.2195
     29 C2        129.7891   50.0806   88.2560 C.ar    1  ANP         0.1195
     30 N3        129.2478   49.0715   88.9444 N.ar    1  ANP        -0.2186
     31 C4        127.9706   49.3278   89.2547 C.ar    1  ANP         0.1586
     32 H3B       125.9586   53.0266   95.9241 H       1  ANP         0.1362
     33 H5'       125.1707   46.6785   94.2207 H       1  ANP         0.0601
     34 H5''      126.7762   47.2404   94.7457 H       1  ANP         0.0601
     35 H4'       126.3790   45.3898   92.8262 H       1  ANP         0.0658
     36 H3'       128.6256   46.7566   93.7193 H       1  ANP         0.0659
     37 H2'       128.6167   48.4406   92.1092 H       1  ANP         0.0675
     38 H1'       127.6171   46.5098   89.9988 H       1  ANP         0.0854
     39 H8        125.0192   48.8184   90.4499 H       1  ANP         0.1018
     40 H2        130.8224   49.9503   87.9710 H       1  ANP         0.1064
     41 H61       126.3709   52.7580   87.9269 H       1  ANP         0.1442
     42 H62       127.8827   53.2492   87.1983 H       1  ANP         0.1442
     43 HO2'      130.0102   47.8512   90.3741 H       1  ANP         0.2108
     44 HO3'      128.4079   44.7845   91.6616 H       1  ANP         0.2107
@<TRIPOS>BOND
     1    21    38    1
     2    21    19    1
     3    21    22    1
     4    21    16    1
     5    29    40    1
     6    29    30   ar
     7    29    28   ar
     8    19    37    1
     9    19    17    1
    10    19    20    1
    11    17    36    1
    12    17    18    1
    13    17    15    1
    14    31    30   ar
    15    31    22   ar
    16    31    25   ar
    17    15    35    1
    18    15    14    1
    19    15    16    1
    20    25    24   ar
    21    25    26   ar
    22    14    33    1
    23    14    34    1
    24    14    13    1
    25    26    27    1
    26    26    28   ar
    27    23    39    1
    28    23    22   ar
    29    23    24   ar
    30    32     8    1
    31    41    27    1
    32    42    27    1
    33    43    20    1
    34    44    18    1
    35     8     5    1
    36     8     1    1
    37    10     9    1
    38     6     5    1
    39     2     1    1
    40    11     9    1
    41     7     5    1
    42     3     1    1
    43    12     5    1
    44    12     9    1
    45     4     1    1
    46    13     9    1
@<TRIPOS>SUBSTRUCTURE
     1 ANP         1 TEMP              0 ****  ****    0 ROOT

