@<TRIPOS>MOLECULE
palbociclib_1BI8.pdb
63 67 1 0 0
SMALL
AMBER ff14SB


@<TRIPOS>ATOM
      1 O01        30.0650   -4.3860   22.0630 O.2       1 LQQ   -0.2943
      2 C02        29.3320   -5.3080   22.3480 C.2       1 LQQ    0.1649
      3 C01        29.6240   -6.7200   21.9370 C.3       1 LQQ   -0.0007
      4 C03        28.0770   -5.0260   23.1210 C.2       1 LQQ    0.0841
      5 C04        28.0680   -4.9860   24.5180 C.2       1 LQQ   -0.0226
      6 C05        29.3140   -5.1340   25.3490 C.3       1 LQQ   -0.0381
      7 C06        26.8180   -4.5830   25.1940 C.ar      1 LQQ    0.0376
      8 C07        26.6840   -4.6250   26.6490 C.ar      1 LQQ    0.0417
      9 N01        25.5070   -4.3360   27.2100 N.ar      1 LQQ   -0.2226
     10 C08        24.3880   -4.1850   26.4700 C.ar      1 LQQ    0.2209
     11 N02        24.4390   -4.2720   25.1020 N.ar      1 LQQ   -0.1985
     12 C09        25.5840   -4.5490   24.4180 C.ar      1 LQQ    0.1399
     13 N03        25.6470   -4.5980   23.0620 N.am      1 LQQ   -0.2480
     14 C10        24.4010   -4.4450   22.2870 C.3       1 LQQ    0.0323
     15 C11        24.4720   -3.4640   21.1220 C.3       1 LQQ   -0.0340
     16 C12        23.7390   -4.1190   19.9460 C.3       1 LQQ   -0.0515
     17 C13        23.3530   -5.5550   20.3440 C.3       1 LQQ   -0.0515
     18 C14        24.0090   -5.8060   21.7010 C.3       1 LQQ   -0.0340
     19 C15        26.8920   -4.8610   22.3990 C.2       1 LQQ    0.2551
     20 O02        26.9620   -4.9450   21.1450 O.2       1 LQQ   -0.2711
     21 N04        23.2540   -3.9410   27.1880 N.pl3     1 LQQ   -0.2681
     22 C16        21.9800   -3.8310   26.7390 C.ar      1 LQQ    0.1239
     23 N05        20.9740   -3.9030   27.6420 N.ar      1 LQQ   -0.2393
     24 C17        19.6950   -3.7950   27.2620 C.ar      1 LQQ    0.0503
     25 C18        19.3670   -3.6020   25.9200 C.ar      1 LQQ    0.0477
     26 C19        20.3900   -3.5220   24.9800 C.ar      1 LQQ   -0.0359
     27 C20        21.7030   -3.6330   25.3910 C.ar      1 LQQ   -0.0196
     28 N06        18.0200   -3.4870   25.5090 N.3       1 LQQ   -0.3191
     29 C21        17.2830   -4.7220   25.8750 C.3       1 LQQ    0.0508
     30 C22        15.8080   -4.6050   25.4980 C.3       1 LQQ   -0.0201
     31 N07        15.6650   -4.2280   24.1010 N.4       1 LQQ    0.2415
     32 C23        16.5200   -3.2060   23.5020 C.3       1 LQQ   -0.0201
     33 C24        17.9470   -3.1840   24.0550 C.3       1 LQQ    0.0508
     34 H07        27.5307   -4.8878   27.2658 H         1 LQQ    0.0849
     35 H10        23.6110   -4.1202   22.9641 H         1 LQQ    0.0511
     36 H112       23.9862   -2.5261   21.3913 H         1 LQQ    0.0286
     37 H113       25.5125   -3.2798   20.8547 H         1 LQQ    0.0286
     38 H122       22.8399   -3.5493   19.7111 H         1 LQQ    0.0267
     39 H123       24.3940   -4.1443   19.0751 H         1 LQQ    0.0267
     40 H132       22.2699   -5.6476   20.4240 H         1 LQQ    0.0267
     41 H133       23.7351   -6.2622   19.6078 H         1 LQQ    0.0267
     42 H142       23.3062   -6.3080   22.3659 H         1 LQQ    0.0286
     43 H143       24.8989   -6.4221   21.5721 H         1 LQQ    0.0286
     44 H04        23.3803   -3.8276   28.1836 H         1 LQQ    0.1574
     45 H17        18.9100   -3.8579   28.0011 H         1 LQQ    0.0861
     46 H19        20.1581   -3.3740   23.9356 H         1 LQQ    0.0644
     47 H20        22.5069   -3.5667   24.6729 H         1 LQQ    0.0660
     48 H212       17.3653   -4.8818   26.9501 H         1 LQQ    0.0524
     49 H213       17.7217   -5.5710   25.3508 H         1 LQQ    0.0524
     50 H222       15.3194   -5.5655   25.6615 H         1 LQQ    0.0830
     51 H223       15.3351   -3.8492   26.1250 H         1 LQQ    0.0830
     52 HN02       14.7138   -3.9083   23.9867 H         1 LQQ    0.1982
     53 HN03       15.7687   -5.0682   23.5501 H         1 LQQ    0.1982
     54 H232       16.5715   -3.3888   22.4287 H         1 LQQ    0.0830
     55 H233       16.0658   -2.2292   23.6685 H         1 LQQ    0.0830
     56 H242       18.3676   -2.1926   23.8870 H         1 LQQ    0.0524
     57 H243       18.5454   -3.9162   23.5129 H         1 LQQ    0.0524
     58 H051       30.1678   -5.3141   24.6957 H         1 LQQ    0.0280
     59 H052       29.4801   -4.2206   25.9201 H         1 LQQ    0.0280
     60 H053       29.1966   -5.9742   26.0334 H         1 LQQ    0.0280
     61 H011       30.5652   -6.7519   21.3881 H         1 LQQ    0.0314
     62 H012       28.8193   -7.0864   21.2995 H         1 LQQ    0.0314
     63 H013       29.6994   -7.3485   22.8244 H         1 LQQ    0.0314
@<TRIPOS>BOND
     1    3    2 1
     2    2    1 2
     3    2    4 2
     4    4    5 2
     5    4   19 1
     6    5    6 1
     7    5    7 1
     8    7    8 ar
     9    7   12 ar
    10    8    9 ar
    11   10    9 ar
    12   10   11 ar
    13   10   21 1
    14   12   11 ar
    15   12   13 1
    16   14   13 1
    17   14   15 1
    18   14   18 1
    19   15   16 1
    20   16   17 1
    21   17   18 1
    22   19   13 am
    23   19   20 2
    24   22   21 1
    25   22   23 ar
    26   22   27 ar
    27   24   23 ar
    28   24   25 ar
    29   25   26 ar
    30   25   28 1
    31   26   27 ar
    32   29   28 1
    33   29   30 1
    34   30   31 1
    35   32   31 1
    36   32   33 1
    37   33   28 1
    38   34    8 1
    39   35   14 1
    40   36   15 1
    41   37   15 1
    42   38   16 1
    43   39   16 1
    44   40   17 1
    45   41   17 1
    46   42   18 1
    47   43   18 1
    48   44   21 1
    49   45   24 1
    50   46   26 1
    51   47   27 1
    52   48   29 1
    53   49   29 1
    54   50   30 1
    55   51   30 1
    56   52   31 1
    57   53   31 1
    58   54   32 1
    59   55   32 1
    60   56   33 1
    61   57   33 1
    62   58    6 1
    63   59    6 1
    64   60    6 1
    65   61    3 1
    66   62    3 1
    67   63    3 1
@<TRIPOS>SUBSTRUCTURE
     1 LQQ     1 RESIDUE           4 B     LQQ     0 ROOT
