@<TRIPOS>MOLECULE
Palbo_complex_relaxed.pdb
63 67 1 0 0
SMALL
AMBER ff14SB


@<TRIPOS>ATOM
      1 C24        67.8470   31.9270   32.9420 C.3       1 LQQ    0.0508
      2 H242       67.6710   32.1160   34.0080 H         1 LQQ    0.0524
      3 H243       67.5320   30.8960   32.7380 H         1 LQQ    0.0524
      4 C23        69.3490   32.1320   32.6480 C.3       1 LQQ   -0.0201
      5 H232       69.7010   33.1000   33.0080 H         1 LQQ    0.0830
      6 H233       69.9710   31.4120   33.1800 H         1 LQQ    0.0830
      7 N07        69.6450   32.0990   31.1630 N.4       1 LQQ    0.2415
      8 HN02       69.3960   31.1630   30.8140 H         1 LQQ    0.1982
      9 HN03       70.6530   32.2110   30.9820 H         1 LQQ    0.1982
     10 C22        68.8140   33.0340   30.3350 C.3       1 LQQ   -0.0201
     11 H222       69.2090   34.0250   30.5610 H         1 LQQ    0.0830
     12 H223       69.1240   32.8800   29.3000 H         1 LQQ    0.0830
     13 C21        67.3220   32.8340   30.6250 C.3       1 LQQ    0.0508
     14 H212       67.0280   31.8300   30.2950 H         1 LQQ    0.0524
     15 H213       66.7600   33.6530   30.1570 H         1 LQQ    0.0524
     16 N06        67.0950   32.9110   32.1610 N.pl3     1 LQQ   -0.3191
     17 C18        66.1420   33.6410   32.8110 C.ar      1 LQQ    0.0477
     18 C19        65.4610   33.1690   33.9520 C.ar      1 LQQ   -0.0359
     19 C20        64.3630   33.9740   34.4060 C.ar      1 LQQ   -0.0196
     20 H20        63.8400   33.6740   35.3090 H         1 LQQ    0.0660
     21 H19        65.7070   32.2360   34.4480 H         1 LQQ    0.0644
     22 C17        65.7850   34.8890   32.2700 C.ar      1 LQQ    0.0503
     23 H17        66.3730   35.2320   31.4190 H         1 LQQ    0.0861
     24 N05        64.8030   35.6560   32.8760 N.ar      1 LQQ   -0.2393
     25 C16        64.0310   35.2420   33.8430 C.ar      1 LQQ    0.1239
     26 N04        63.1160   36.1930   34.3780 N.pl3     1 LQQ   -0.2681
     27 H04        63.0940   37.1210   33.9730 H         1 LQQ    0.1574
     28 C08        61.9720   36.0890   35.1720 C.ar      1 LQQ    0.2209
     29 N02        61.4260   34.8730   35.3250 N.ar      1 LQQ   -0.1985
     30 C09        60.2600   34.8100   35.9410 C.ar      1 LQQ    0.1399
     31 N01        61.4430   37.2750   35.5890 N.ar      1 LQQ   -0.2226
     32 C07        60.2170   37.2310   36.1790 C.ar      1 LQQ    0.0417
     33 H07        59.6440   38.1180   36.4420 H         1 LQQ    0.0849
     34 C06        59.5480   36.0140   36.4030 C.ar      1 LQQ    0.0376
     35 C04        58.2280   35.7620   37.0600 C.2       1 LQQ   -0.0226
     36 C05        57.4790   36.8480   37.7540 C.3       1 LQQ   -0.0381
     37 H051       58.0290   37.7670   37.9940 H         1 LQQ    0.0280
     38 H052       56.6830   37.2650   37.1240 H         1 LQQ    0.0280
     39 H053       56.9450   36.5460   38.6630 H         1 LQQ    0.0280
     40 C03        57.6340   34.4430   36.9790 C.2       1 LQQ    0.0841
     41 C02        56.3020   34.1510   37.5650 C.2       1 LQQ    0.1649
     42 C01        55.8620   32.7570   37.9120 C.3       1 LQQ   -0.0007
     43 H011       56.7620   32.2890   38.3300 H         1 LQQ    0.0314
     44 H012       55.0700   32.6580   38.6650 H         1 LQQ    0.0314
     45 H013       55.6130   32.2220   36.9880 H         1 LQQ    0.0314
     46 O01        55.4260   34.9660   37.9220 O.2       1 LQQ   -0.2943
     47 C15        58.3710   33.2860   36.2900 C.2       1 LQQ    0.2551
     48 O02        57.7540   32.2670   35.9490 O.2       1 LQQ   -0.2711
     49 N03        59.7370   33.5350   36.2030 N.am      1 LQQ   -0.2480
     50 C10        60.6910   32.3530   36.3630 C.3       1 LQQ    0.0323
     51 H10        61.0580   32.0580   35.3720 H         1 LQQ    0.0511
     52 C11        61.8370   32.5900   37.3460 C.3       1 LQQ   -0.0340
     53 H112       62.5660   33.3220   36.9800 H         1 LQQ    0.0286
     54 H113       61.4680   33.2150   38.1670 H         1 LQQ    0.0286
     55 C12        62.3630   31.2270   37.7730 C.3       1 LQQ   -0.0515
     56 H122       63.1330   30.8940   37.0670 H         1 LQQ    0.0267
     57 H123       62.8600   31.2980   38.7480 H         1 LQQ    0.0267
     58 C13        61.1840   30.2550   37.6610 C.3       1 LQQ   -0.0515
     59 H132       61.4790   29.3690   37.0850 H         1 LQQ    0.0267
     60 H133       60.8980   29.8580   38.6430 H         1 LQQ    0.0267
     61 C14        60.0870   31.0990   36.9440 C.3       1 LQQ   -0.0340
     62 H142       59.3540   31.3530   37.7190 H         1 LQQ    0.0286
     63 H143       59.4660   30.5890   36.1960 H         1 LQQ    0.0286
@<TRIPOS>BOND
     1    1    2 1
     2    1    3 1
     3    1    4 1
     4    1   16 1
     5    4    5 1
     6    4    6 1
     7    4    7 1
     8    7    8 1
     9    7    9 1
    10    7   10 1
    11   10   11 1
    12   10   12 1
    13   10   13 1
    14   13   14 1
    15   13   15 1
    16   13   16 1
    17   16   17 1
    18   17   18 ar
    19   17   22 ar
    20   18   19 ar
    21   18   21 1
    22   19   20 1
    23   19   25 ar
    24   22   23 1
    25   22   24 ar
    26   24   25 ar
    27   25   26 1
    28   26   27 1
    29   26   28 1
    30   28   29 ar
    31   28   31 ar
    32   29   30 ar
    33   30   34 ar
    34   30   49 1
    35   31   32 ar
    36   32   33 1
    37   32   34 ar
    38   34   35 1
    39   35   36 1
    40   35   40 2
    41   36   37 1
    42   36   38 1
    43   36   39 1
    44   40   41 2
    45   40   47 1
    46   41   42 1
    47   41   46 2
    48   42   43 1
    49   42   44 1
    50   42   45 1
    51   47   48 2
    52   47   49 am
    53   49   50 1
    54   50   51 1
    55   50   52 1
    56   50   61 1
    57   52   53 1
    58   52   54 1
    59   52   55 1
    60   55   56 1
    61   55   57 1
    62   55   58 1
    63   58   59 1
    64   58   60 1
    65   58   61 1
    66   61   62 1
    67   61   63 1
@<TRIPOS>SUBSTRUCTURE
     1 LQQ     1 RESIDUE           4 D     LQQ     0 ROOT
