@<TRIPOS>MOLECULE
Palbo_complex_relaxed.pdb
63 67 1 0 0
SMALL
AMBER ff14SB


@<TRIPOS>ATOM
      1 C01        54.4770   40.0320   38.2550 C.3       1 LQQ   -0.0007
      2 N01        59.6380   35.5710   40.8810 N.ar      1 LQQ   -0.2226
      3 O01        56.6110   40.7980   37.7620 O.2       1 LQQ   -0.2943
      4 C02        56.0210   39.8320   38.1260 C.2       1 LQQ    0.1649
      5 N02        57.6360   34.7150   40.0120 N.ar      1 LQQ   -0.1985
      6 O02        54.5840   37.3810   37.8210 O.2       1 LQQ   -0.2711
      7 C03        56.5130   38.4990   38.4860 C.2       1 LQQ    0.0841
      8 N03        56.2170   36.0010   38.5000 N.am      1 LQQ   -0.2480
      9 C04        57.7150   38.4100   39.2380 C.2       1 LQQ   -0.0226
     10 N04        59.2320   33.3350   41.0250 N.pl3     1 LQQ   -0.2681
     11 C05        58.5180   39.5380   39.6440 C.3       1 LQQ   -0.0381
     12 N05        59.1130   31.0680   40.5950 N.ar      1 LQQ   -0.2393
     13 C06        58.1280   36.9930   39.5970 C.ar      1 LQQ    0.0376
     14 N06        56.3500   28.5920   40.3770 N.pl3     1 LQQ   -0.3191
     15 C07        59.2590   36.7880   40.5090 C.ar      1 LQQ    0.0417
     16 N07        55.0790   26.4530   38.8280 N.4       1 LQQ    0.2415
     17 C08        58.7830   34.5900   40.7010 C.ar      1 LQQ    0.2209
     18 C09        57.3890   35.8350   39.3300 C.ar      1 LQQ    0.1399
     19 C10        55.5770   34.8290   37.9450 C.3       1 LQQ    0.0323
     20 C11        56.4740   33.7250   37.2050 C.3       1 LQQ   -0.0340
     21 C12        55.8890   32.3590   37.5910 C.3       1 LQQ   -0.0515
     22 C13        54.5790   32.7120   38.2290 C.3       1 LQQ   -0.0515
     23 C14        54.6520   34.0580   38.8950 C.3       1 LQQ   -0.0340
     24 C15        55.7350   37.3100   38.2580 C.2       1 LQQ    0.2551
     25 C16        58.4910   32.1630   41.0030 C.ar      1 LQQ    0.1239
     26 C17        58.4910   29.8470   40.4840 C.ar      1 LQQ    0.0503
     27 C18        57.1040   29.7600   40.6590 C.ar      1 LQQ    0.0477
     28 C19        56.4080   30.9390   41.1330 C.ar      1 LQQ   -0.0359
     29 C20        57.1430   32.1080   41.3850 C.ar      1 LQQ   -0.0196
     30 C21        56.9560   27.2670   40.3550 C.3       1 LQQ    0.0508
     31 C22        56.5490   26.5900   39.0300 C.3       1 LQQ   -0.0201
     32 C23        54.4310   27.7870   38.8620 C.3       1 LQQ   -0.0201
     33 C24        54.8940   28.5890   40.1260 C.3       1 LQQ    0.0508
     34 HN02       54.8570   26.0510   37.9060 H         1 LQQ    0.1982
     35 HN03       54.7790   25.7110   39.4780 H         1 LQQ    0.1982
     36 H04        60.2030   33.2840   41.3080 H         1 LQQ    0.1574
     37 H07        59.8960   37.6010   40.8540 H         1 LQQ    0.0849
     38 H10        54.9750   35.1900   37.1030 H         1 LQQ    0.0511
     39 H17        59.2130   29.1080   40.1370 H         1 LQQ    0.0861
     40 H19        55.3630   30.9250   41.4310 H         1 LQQ    0.0644
     41 H20        56.6230   32.9440   41.8450 H         1 LQQ    0.0660
     42 H011       54.0070   39.8520   37.2800 H         1 LQQ    0.0314
     43 H012       54.0370   39.4370   39.0650 H         1 LQQ    0.0314
     44 H013       54.1070   41.0560   38.3960 H         1 LQQ    0.0314
     45 H051       58.7680   39.4760   40.7110 H         1 LQQ    0.0280
     46 H052       57.9940   40.5020   39.6440 H         1 LQQ    0.0280
     47 H053       59.3160   39.7290   38.9170 H         1 LQQ    0.0280
     48 H112       56.5300   33.8320   36.1150 H         1 LQQ    0.0286
     49 H113       57.5250   33.8850   37.4750 H         1 LQQ    0.0286
     50 H122       55.8620   31.5080   36.8990 H         1 LQQ    0.0267
     51 H123       56.4940   31.9350   38.4010 H         1 LQQ    0.0267
     52 H132       54.1410   31.9430   38.8790 H         1 LQQ    0.0267
     53 H133       53.9140   32.9040   37.3790 H         1 LQQ    0.0267
     54 H142       54.9990   33.9230   39.9270 H         1 LQQ    0.0286
     55 H143       53.6340   34.4650   38.9160 H         1 LQQ    0.0286
     56 H212       58.0470   27.2240   40.4460 H         1 LQQ    0.0524
     57 H213       56.5980   26.6450   41.1840 H         1 LQQ    0.0524
     58 H222       56.9370   25.5700   39.0290 H         1 LQQ    0.0830
     59 H223       56.9670   27.2000   38.2280 H         1 LQQ    0.0830
     60 H232       53.3450   27.8250   38.7630 H         1 LQQ    0.0830
     61 H233       54.7130   28.4750   38.0620 H         1 LQQ    0.0830
     62 H242       54.3730   28.3060   41.0490 H         1 LQQ    0.0524
     63 H243       54.5610   29.6090   39.9000 H         1 LQQ    0.0524
@<TRIPOS>BOND
     1    1   42 1
     2    1   43 1
     3    1   44 1
     4    1    4 1
     5    2   15 ar
     6    2   17 ar
     7    3    4 2
     8    4    7 2
     9    5   18 ar
    10    5   17 ar
    11    6   24 2
    12    7   24 1
    13    7    9 2
    14    8   19 1
    15    8   18 1
    16    8   24 am
    17    9   11 1
    18    9   13 1
    19   10   17 1
    20   10   36 1
    21   10   25 1
    22   11   45 1
    23   11   46 1
    24   11   47 1
    25   12   25 ar
    26   12   26 ar
    27   13   15 ar
    28   13   18 ar
    29   14   27 1
    30   14   30 1
    31   14   33 1
    32   15   37 1
    33   16   31 1
    34   16   34 1
    35   16   35 1
    36   16   32 1
    37   19   20 1
    38   19   23 1
    39   19   38 1
    40   20   21 1
    41   20   48 1
    42   20   49 1
    43   21   22 1
    44   21   50 1
    45   21   51 1
    46   22   23 1
    47   22   52 1
    48   22   53 1
    49   23   54 1
    50   23   55 1
    51   25   29 ar
    52   26   39 1
    53   26   27 ar
    54   27   28 ar
    55   28   29 ar
    56   28   40 1
    57   29   41 1
    58   30   56 1
    59   30   57 1
    60   30   31 1
    61   31   58 1
    62   31   59 1
    63   32   60 1
    64   32   61 1
    65   32   33 1
    66   33   62 1
    67   33   63 1
@<TRIPOS>SUBSTRUCTURE
     1 LQQ     1 RESIDUE           4 D     LQQ     0 ROOT
